Row0
  Mrv171c012251911052D          

  2  1  0  0  0  0            999 V2000
    0.8250    0.0000    0.0000 C   0  0  0  0  0  0  0  0  0  0  0  0
    0.0000    0.0000    0.0000 O   0  0  0  0  0  0  0  0  0  0  0  0
  1  2  2  0  0  0  0
M  END
> <ChemID>
100001

> <CAS>
50-00-0

> <Original_SMILES>
C=O

> <preferred_name>
Formaldehyde

> <dsstox_substance_id>
DTXSID7020637

> <dsstox_compound_id>
DTXCID30637

> <qc_level>
DSSTox_High

> <Canonical_QSARr>
C=O

> <InChI_Code_QSARr>
InChI=1S/CH2O/c1-2/h1H2

> <InChI Key_QSARr>
WSFSSNUMVMOOMR-UHFFFAOYSA-N

> <Salt_Solvent>


> <Salt_Solvent_ID>
0

> <MPID>
100017

> <Tr_1_Tst_0>
1

> <Ready_Biodeg>
1.0

$$$$
Row1
  Mrv171c012251911052D          

 14 14  0  0  0  0            999 V2000
    0.4153    0.2899    0.0000 Cl  0  0  0  0  0  0  0  0  0  0  0  0
    1.1298   -0.1226    0.0000 C   0  0  0  0  0  0  0  0  0  0  0  0
    1.1298   -0.9476    0.0000 C   0  0  0  0  0  0  0  0  0  0  0  0
    1.8443   -1.3601    0.0000 N   0  0  0  0  0  0  0  0  0  0  0  0
    1.8443   -2.1851    0.0000 P   0  0  0  0  0  0  0  0  0  0  0  0
    1.5621   -2.9603    0.0000 O   0  0  0  0  0  0  0  0  0  0  0  0
    2.0924   -3.5923    0.0000 C   0  0  0  0  0  0  0  0  0  0  0  0
    2.9049   -3.4491    0.0000 C   0  0  0  0  0  0  0  0  0  0  0  0
    3.1870   -2.6738    0.0000 C   0  0  0  0  0  0  0  0  0  0  0  0
    2.6567   -2.0418    0.0000 N   0  0  0  0  0  0  0  0  0  0  0  0
    1.0318   -2.0418    0.0000 O   0  0  0  0  0  0  0  0  0  0  0  0
    2.5587   -0.9476    0.0000 C   0  0  0  0  0  0  0  0  0  0  0  0
    2.5587   -0.1226    0.0000 C   0  0  0  0  0  0  0  0  0  0  0  0
    3.2732    0.2899    0.0000 Cl  0  0  0  0  0  0  0  0  0  0  0  0
  1  2  1  0  0  0  0
  2  3  1  0  0  0  0
  3  4  1  0  0  0  0
  4  5  1  0  0  0  0
  6  5  1  0  0  0  0
  7  6  1  0  0  0  0
  8  7  1  0  0  0  0
  9  8  1  0  0  0  0
 10  9  1  0  0  0  0
  5 10  1  0  0  0  0
  5 11  2  0  0  0  0
  4 12  1  0  0  0  0
 12 13  1  0  0  0  0
 13 14  1  0  0  0  0
M  END
> <ChemID>
100002

> <CAS>
50-18-0

> <Original_SMILES>
O=P1(NCCCO1)N(CCCl)CCCl

> <preferred_name>
Cyclophosphamide

> <dsstox_substance_id>
DTXSID5020364

> <dsstox_compound_id>
DTXCID70364

> <qc_level>
DSSTox_Low

> <Canonical_QSARr>
O=P1(NCCCO1)N(CCCl)CCCl

> <InChI_Code_QSARr>
InChI=1S/C7H15Cl2N2O2P/c8-2-5-11(6-3-9)14(12)10-4-1-7-13-14/h1-7H2,(H,10,12)

> <InChI Key_QSARr>
CMSMOCZEIVJLDB-UHFFFAOYSA-N

> <Salt_Solvent>


> <Salt_Solvent_ID>
0

> <MPID>
100018

> <Tr_1_Tst_0>
1

> <Ready_Biodeg>
0.0

$$$$
Row2
  Mrv171c012251911052D          

  6  5  0  0  0  0            999 V2000
    0.8245   -1.4286    0.0000 C   0  0  0  0  0  0  0  0  0  0  0  0
    1.2370   -0.7141    0.0000 C   0  0  0  0  0  0  0  0  0  0  0  0
    0.8245    0.0003    0.0000 O   0  0  0  0  0  0  0  0  0  0  0  0
    2.0620   -0.7141    0.0000 C   0  0  0  0  0  0  0  0  0  0  0  0
    1.2370   -2.1431    0.0000 O   0  0  0  0  0  0  0  0  0  0  0  0
   -0.0005   -1.4286    0.0000 O   0  0  0  0  0  0  0  0  0  0  0  0
  1  2  1  0  0  0  0
  2  3  1  0  0  0  0
  2  4  1  0  0  0  0
  1  5  2  0  0  0  0
  1  6  1  0  0  0  0
M  END
> <ChemID>
100003

> <CAS>
50-21-5

> <Original_SMILES>
CC(O)C(O)=O

> <preferred_name>
Lactic acid

> <dsstox_substance_id>
DTXSID7023192

> <dsstox_compound_id>
DTXCID003192

> <qc_level>
DSSTox_High

> <Canonical_QSARr>
CC(O)C(O)=O

> <InChI_Code_QSARr>
InChI=1S/C3H6O3/c1-2(4)3(5)6/h2,4H,1H3,(H,5,6)

> <InChI Key_QSARr>
JVTAAEKCZFNVCJ-UHFFFAOYSA-N

> <Salt_Solvent>


> <Salt_Solvent_ID>
0

> <MPID>
100019

> <Tr_1_Tst_0>
1

> <Ready_Biodeg>
1.0

$$$$
Row3
  Mrv171c012251911052D          

 19 20  0  0  0  0            999 V2000
    1.3190   -2.0632    0.0000 Cl  0  0  0  0  0  0  0  0  0  0  0  0
    1.7315   -2.7776    0.0000 C   0  0  0  0  0  0  0  0  0  0  0  0
    2.1440   -3.4921    0.0000 Cl  0  0  0  0  0  0  0  0  0  0  0  0
    1.0170   -3.1901    0.0000 Cl  0  0  0  0  0  0  0  0  0  0  0  0
    2.4459   -2.3651    0.0000 C   0  0  0  0  0  0  0  0  0  0  0  0
    2.4459   -1.5401    0.0000 C   0  0  0  0  0  0  0  0  0  0  0  0
    3.1604   -1.1276    0.0000 C   0  0  0  0  0  0  0  0  0  0  0  0
    3.1604   -0.3026    0.0000 C   0  0  0  0  0  0  0  0  0  0  0  0
    2.4459    0.1099    0.0000 C   0  0  0  0  0  0  0  0  0  0  0  0
    2.4459    0.9349    0.0000 Cl  0  0  0  0  0  0  0  0  0  0  0  0
    1.7315   -0.3026    0.0000 C   0  0  0  0  0  0  0  0  0  0  0  0
    1.7315   -1.1276    0.0000 C   0  0  0  0  0  0  0  0  0  0  0  0
    3.1604   -2.7776    0.0000 C   0  0  0  0  0  0  0  0  0  0  0  0
    3.1604   -3.6026    0.0000 C   0  0  0  0  0  0  0  0  0  0  0  0
    3.8749   -4.0151    0.0000 C   0  0  0  0  0  0  0  0  0  0  0  0
    4.5894   -3.6026    0.0000 C   0  0  0  0  0  0  0  0  0  0  0  0
    5.3038   -4.0151    0.0000 Cl  0  0  0  0  0  0  0  0  0  0  0  0
    4.5894   -2.7776    0.0000 C   0  0  0  0  0  0  0  0  0  0  0  0
    3.8749   -2.3651    0.0000 C   0  0  0  0  0  0  0  0  0  0  0  0
  1  2  1  0  0  0  0
  2  3  1  0  0  0  0
  2  4  1  0  0  0  0
  2  5  1  0  0  0  0
  5  6  1  0  0  0  0
  7  6  1  0  0  0  0
  8  7  2  0  0  0  0
  9  8  1  0  0  0  0
  9 10  1  0  0  0  0
 11  9  2  0  0  0  0
 12 11  1  0  0  0  0
  6 12  2  0  0  0  0
  5 13  1  0  0  0  0
 14 13  1  0  0  0  0
 15 14  2  0  0  0  0
 16 15  1  0  0  0  0
 16 17  1  0  0  0  0
 18 16  2  0  0  0  0
 19 18  1  0  0  0  0
 13 19  2  0  0  0  0
M  END
> <ChemID>
100004

> <CAS>
50-29-3

> <Original_SMILES>
ClC(Cl)(Cl)C(c1ccc(Cl)cc1)c1ccc(Cl)cc1

> <preferred_name>
p,p'-DDT

> <dsstox_substance_id>
DTXSID4020375

> <dsstox_compound_id>
DTXCID20375

> <qc_level>
DSSTox_High

> <Canonical_QSARr>
ClC(Cl)(Cl)C(C1C=CC(Cl)=CC=1)C1C=CC(Cl)=CC=1

> <InChI_Code_QSARr>
InChI=1S/C14H9Cl5/c15-11-5-1-9(2-6-11)13(14(17,18)19)10-3-7-12(16)8-4-10/h1-8,13H

> <InChI Key_QSARr>
YVGGHNCTFXOJCH-UHFFFAOYSA-N

> <Salt_Solvent>


> <Salt_Solvent_ID>
0

> <MPID>
100020

> <Tr_1_Tst_0>
0

> <Ready_Biodeg>
0.0

$$$$
Row4
  Mrv171c012251911052D          

 11 11  0  0  0  0            999 V2000
    2.2306   -0.9411    0.0000 C   0  0  0  0  0  0  0  0  0  0  0  0
    1.5161   -1.3536    0.0000 C   0  0  0  0  0  0  0  0  0  0  0  0
    0.8016   -0.9411    0.0000 C   0  0  0  0  0  0  0  0  0  0  0  0
    0.8016   -0.1161    0.0000 Cl  0  0  0  0  0  0  0  0  0  0  0  0
    0.0871   -1.3536    0.0000 C   0  0  0  0  0  0  0  0  0  0  0  0
    0.0871   -2.1786    0.0000 C   0  0  0  0  0  0  0  0  0  0  0  0
    0.8016   -2.5911    0.0000 C   0  0  0  0  0  0  0  0  0  0  0  0
    1.5161   -2.1786    0.0000 C   0  0  0  0  0  0  0  0  0  0  0  0
    2.2306   -2.5911    0.0000 Cl  0  0  0  0  0  0  0  0  0  0  0  0
    2.2306   -0.1161    0.0000 O   0  0  0  0  0  0  0  0  0  0  0  0
    2.9450   -1.3536    0.0000 O   0  0  0  0  0  0  0  0  0  0  0  0
  1  2  1  0  0  0  0
  3  2  1  0  0  0  0
  3  4  1  0  0  0  0
  5  3  2  0  0  0  0
  6  5  1  0  0  0  0
  7  6  2  0  0  0  0
  8  7  1  0  0  0  0
  2  8  2  0  0  0  0
  8  9  1  0  0  0  0
  1 10  1  0  0  0  0
  1 11  2  0  0  0  0
M  END
> <ChemID>
100005

> <CAS>
50-30-6

> <Original_SMILES>
OC(=O)c1c(Cl)cccc1Cl

> <preferred_name>
2,6-Dichlorobenzoic acid

> <dsstox_substance_id>
DTXSID0024979

> <dsstox_compound_id>
DTXCID904979

> <qc_level>
DSSTox_Low

> <Canonical_QSARr>
OC(=O)C1C(Cl)=CC=CC=1Cl

> <InChI_Code_QSARr>
InChI=1S/C7H4Cl2O2/c8-4-2-1-3-5(9)6(4)7(10)11/h1-3H,(H,10,11)

> <InChI Key_QSARr>
MRUDNSFOFOQZDA-UHFFFAOYSA-N

> <Salt_Solvent>


> <Salt_Solvent_ID>
0

> <MPID>
100021

> <Tr_1_Tst_0>
1

> <Ready_Biodeg>
0.0

$$$$
Row5
  Mrv171c012251911052D          

 12 12  0  0  0  0            999 V2000
    2.7353   -0.6225    0.0000 C   0  0  0  0  0  0  0  0  0  0  0  0
    3.4497   -1.0350    0.0000 O   0  0  0  0  0  0  0  0  0  0  0  0
    2.0208   -1.0350    0.0000 C   0  0  0  0  0  0  0  0  0  0  0  0
    1.3063   -0.6225    0.0000 C   0  0  0  0  0  0  0  0  0  0  0  0
    1.3063    0.2025    0.0000 Cl  0  0  0  0  0  0  0  0  0  0  0  0
    0.5918   -1.0350    0.0000 C   0  0  0  0  0  0  0  0  0  0  0  0
    0.5918   -1.8600    0.0000 C   0  0  0  0  0  0  0  0  0  0  0  0
    1.3063   -2.2725    0.0000 C   0  0  0  0  0  0  0  0  0  0  0  0
    1.3063   -3.0975    0.0000 Cl  0  0  0  0  0  0  0  0  0  0  0  0
    2.0208   -1.8600    0.0000 C   0  0  0  0  0  0  0  0  0  0  0  0
    2.7353   -2.2725    0.0000 Cl  0  0  0  0  0  0  0  0  0  0  0  0
    2.7353    0.2025    0.0000 O   0  0  0  0  0  0  0  0  0  0  0  0
  1  2  1  0  0  0  0
  1  3  1  0  0  0  0
  4  3  1  0  0  0  0
  4  5  1  0  0  0  0
  6  4  2  0  0  0  0
  7  6  1  0  0  0  0
  8  7  2  0  0  0  0
  8  9  1  0  0  0  0
 10  8  1  0  0  0  0
  3 10  2  0  0  0  0
 10 11  1  0  0  0  0
  1 12  2  0  0  0  0
M  END
> <ChemID>
100006

> <CAS>
50-31-7

> <Original_SMILES>
OC(=O)c1c(Cl)c(Cl)ccc1Cl

> <preferred_name>
2,3,6-Trichlorobenzoic acid

> <dsstox_substance_id>
DTXSID6040296

> <dsstox_compound_id>
DTXCID4020296

> <qc_level>
DSSTox_Low

> <Canonical_QSARr>
OC(=O)C1=C(Cl)C(Cl)=CC=C1Cl

> <InChI_Code_QSARr>
InChI=1S/C7H3Cl3O2/c8-3-1-2-4(9)6(10)5(3)7(11)12/h1-2H,(H,11,12)

> <InChI Key_QSARr>
XZIDTOHMJBOSOX-UHFFFAOYSA-N

> <Salt_Solvent>


> <Salt_Solvent_ID>
0

> <MPID>
100022

> <Tr_1_Tst_0>
1

> <Ready_Biodeg>
0.0

$$$$
Row6
  Mrv171c012251911052D          

 21 22  0  0  0  0            999 V2000
    4.2446   -2.5643    0.0000 O   0  0  0  0  0  0  0  0  0  0  0  0
    4.2446   -1.7393    0.0000 C   0  0  0  0  0  0  0  0  0  0  0  0
    3.5302   -1.3268    0.0000 N   0  0  0  0  0  0  0  0  0  0  0  0
    2.8157   -1.7393    0.0000 C   0  0  0  0  0  0  0  0  0  0  0  0
    2.1012   -1.3268    0.0000 C   0  0  0  0  0  0  0  0  0  0  0  0
    2.1012   -0.5018    0.0000 Cl  0  0  0  0  0  0  0  0  0  0  0  0
    1.3867   -1.7393    0.0000 C   0  0  0  0  0  0  0  0  0  0  0  0
    1.3867   -2.5643    0.0000 C   0  0  0  0  0  0  0  0  0  0  0  0
    0.6723   -2.9768    0.0000 N   0  3  0  0  0  0  0  0  0  0  0  0
    0.6723   -3.8018    0.0000 O   0  5  0  0  0  0  0  0  0  0  0  0
   -0.0422   -2.5643    0.0000 O   0  0  0  0  0  0  0  0  0  0  0  0
    2.1012   -2.9768    0.0000 C   0  0  0  0  0  0  0  0  0  0  0  0
    2.8157   -2.5643    0.0000 C   0  0  0  0  0  0  0  0  0  0  0  0
    4.9591   -1.3268    0.0000 C   0  0  0  0  0  0  0  0  0  0  0  0
    5.6736   -1.7393    0.0000 C   0  0  0  0  0  0  0  0  0  0  0  0
    6.3880   -1.3268    0.0000 C   0  0  0  0  0  0  0  0  0  0  0  0
    7.1025   -1.7393    0.0000 Cl  0  0  0  0  0  0  0  0  0  0  0  0
    6.3880   -0.5018    0.0000 C   0  0  0  0  0  0  0  0  0  0  0  0
    5.6736   -0.0893    0.0000 C   0  0  0  0  0  0  0  0  0  0  0  0
    4.9591   -0.5018    0.0000 C   0  0  0  0  0  0  0  0  0  0  0  0
    4.2446   -0.0893    0.0000 O   0  0  0  0  0  0  0  0  0  0  0  0
  1  2  2  0  0  0  0
  2  3  1  0  0  0  0
  3  4  1  0  0  0  0
  5  4  1  0  0  0  0
  5  6  1  0  0  0  0
  7  5  2  0  0  0  0
  8  7  1  0  0  0  0
  8  9  1  0  0  0  0
  9 10  1  0  0  0  0
  9 11  2  0  0  0  0
 12  8  2  0  0  0  0
 13 12  1  0  0  0  0
  4 13  2  0  0  0  0
  2 14  1  0  0  0  0
 15 14  1  0  0  0  0
 16 15  2  0  0  0  0
 16 17  1  0  0  0  0
 18 16  1  0  0  0  0
 19 18  2  0  0  0  0
 20 19  1  0  0  0  0
 14 20  2  0  0  0  0
 20 21  1  0  0  0  0
M  CHG  2   9   1  10  -1
M  END
> <ChemID>
100007

> <CAS>
50-65-7

> <Original_SMILES>
[O-][N+](=O)c1cc(Cl)c(cc1)NC(=O)c1cc(Cl)ccc1O

> <preferred_name>
Niclosamide

> <dsstox_substance_id>
DTXSID7040362

> <dsstox_compound_id>
DTXCID5020362

> <qc_level>
DSSTox_Low

> <Canonical_QSARr>
[O-][N+](=O)C1C=C(Cl)C(=CC=1)NC(=O)C1C=C(Cl)C=CC=1O

> <InChI_Code_QSARr>
InChI=1S/C13H8Cl2N2O4/c14-7-1-4-12(18)9(5-7)13(19)16-11-3-2-8(17(20)21)6-10(11)15/h1-6,18H,(H,16,19)

> <InChI Key_QSARr>
RJMUSRYZPJIFPJ-UHFFFAOYSA-N

> <Salt_Solvent>


> <Salt_Solvent_ID>
0

> <MPID>
100023

> <Tr_1_Tst_0>
1

> <Ready_Biodeg>
0.0

$$$$
Row7
  Mrv171c012251911052D          

 13 13  0  0  0  0            999 V2000
   -0.4879   -2.6420    0.0000 O   0  0  0  0  0  0  0  0  0  0  0  0
    0.2266   -2.2295    0.0000 C   0  0  0  0  0  0  0  0  0  0  0  0
    0.9410   -2.6420    0.0000 C   0  0  0  0  0  0  0  0  0  0  0  0
    0.9410   -3.4670    0.0000 C   0  0  0  0  0  0  0  0  0  0  0  0
    1.6555   -3.8795    0.0000 C   0  0  0  0  0  0  0  0  0  0  0  0
    2.3700   -3.4670    0.0000 C   0  0  0  0  0  0  0  0  0  0  0  0
    2.3700   -2.6420    0.0000 C   0  0  0  0  0  0  0  0  0  0  0  0
    1.6555   -2.2295    0.0000 C   0  0  0  0  0  0  0  0  0  0  0  0
    1.6555   -1.4045    0.0000 O   0  0  0  0  0  0  0  0  0  0  0  0
    2.3700   -0.9920    0.0000 C   0  0  0  0  0  0  0  0  0  0  0  0
    2.3700   -0.1670    0.0000 C   0  0  0  0  0  0  0  0  0  0  0  0
    3.0844   -1.4045    0.0000 O   0  0  0  0  0  0  0  0  0  0  0  0
    0.2266   -1.4045    0.0000 O   0  0  0  0  0  0  0  0  0  0  0  0
  1  2  1  0  0  0  0
  2  3  1  0  0  0  0
  4  3  1  0  0  0  0
  5  4  2  0  0  0  0
  6  5  1  0  0  0  0
  7  6  2  0  0  0  0
  8  7  1  0  0  0  0
  3  8  2  0  0  0  0
  8  9  1  0  0  0  0
  9 10  1  0  0  0  0
 10 11  1  0  0  0  0
 10 12  2  0  0  0  0
  2 13  2  0  0  0  0
M  END
> <ChemID>
100008

> <CAS>
50-78-2

> <Original_SMILES>
CC(=O)Oc1ccccc1C(O)=O

> <preferred_name>
Aspirin

> <dsstox_substance_id>
DTXSID5020108

> <dsstox_compound_id>
DTXCID50108

> <qc_level>
DSSTox_Low

> <Canonical_QSARr>
CC(=O)OC1C=CC=CC=1C(O)=O

> <InChI_Code_QSARr>
InChI=1S/C9H8O4/c1-6(10)13-8-5-3-2-4-7(8)9(11)12/h2-5H,1H3,(H,11,12)

> <InChI Key_QSARr>
BSYNRYMUTXBXSQ-UHFFFAOYSA-N

> <Salt_Solvent>


> <Salt_Solvent_ID>
0

> <MPID>
100024

> <Tr_1_Tst_0>
0

> <Ready_Biodeg>
1.0

$$$$
Row8
  Mrv171c012251911052D          

 11 11  0  0  0  0            999 V2000
    2.5102   -0.8661    0.0000 C   0  0  0  0  0  0  0  0  0  0  0  0
    1.7957   -1.2786    0.0000 C   0  0  0  0  0  0  0  0  0  0  0  0
    1.0812   -0.8661    0.0000 C   0  0  0  0  0  0  0  0  0  0  0  0
    1.0812   -0.0411    0.0000 Cl  0  0  0  0  0  0  0  0  0  0  0  0
    0.3668   -1.2786    0.0000 C   0  0  0  0  0  0  0  0  0  0  0  0
    0.3668   -2.1036    0.0000 C   0  0  0  0  0  0  0  0  0  0  0  0
    1.0812   -2.5161    0.0000 C   0  0  0  0  0  0  0  0  0  0  0  0
    1.0812   -3.3411    0.0000 Cl  0  0  0  0  0  0  0  0  0  0  0  0
    1.7957   -2.1036    0.0000 C   0  0  0  0  0  0  0  0  0  0  0  0
    3.2247   -1.2786    0.0000 O   0  0  0  0  0  0  0  0  0  0  0  0
    2.5102   -0.0411    0.0000 O   0  0  0  0  0  0  0  0  0  0  0  0
  1  2  1  0  0  0  0
  3  2  1  0  0  0  0
  3  4  1  0  0  0  0
  5  3  2  0  0  0  0
  6  5  1  0  0  0  0
  7  6  2  0  0  0  0
  7  8  1  0  0  0  0
  9  7  1  0  0  0  0
  2  9  2  0  0  0  0
  1 10  1  0  0  0  0
  1 11  2  0  0  0  0
M  END
> <ChemID>
100009

> <CAS>
50-79-3

> <Original_SMILES>
OC(=O)c1cc(Cl)ccc1Cl

> <preferred_name>
2,5-Dichlorobenzoic acid

> <dsstox_substance_id>
DTXSID5024978

> <dsstox_compound_id>
DTXCID504978

> <qc_level>
DSSTox_High

> <Canonical_QSARr>
OC(=O)C1=CC(Cl)=CC=C1Cl

> <InChI_Code_QSARr>
InChI=1S/C7H4Cl2O2/c8-4-1-2-6(9)5(3-4)7(10)11/h1-3H,(H,10,11)

> <InChI Key_QSARr>
QVTQYSFCFOGITD-UHFFFAOYSA-N

> <Salt_Solvent>


> <Salt_Solvent_ID>
0

> <MPID>
100025

> <Tr_1_Tst_0>
1

> <Ready_Biodeg>
0.0

$$$$
Row9
  Mrv171c012251911052D          

 11 11  0  0  0  0            999 V2000
    3.2006   -0.8085    0.0000 C   0  0  0  0  0  0  0  0  0  0  0  0
    2.4861   -1.2210    0.0000 C   0  0  0  0  0  0  0  0  0  0  0  0
    1.7716   -0.8085    0.0000 C   0  0  0  0  0  0  0  0  0  0  0  0
    1.7716    0.0165    0.0000 Cl  0  0  0  0  0  0  0  0  0  0  0  0
    1.0572   -1.2210    0.0000 C   0  0  0  0  0  0  0  0  0  0  0  0
    1.0572   -2.0460    0.0000 C   0  0  0  0  0  0  0  0  0  0  0  0
    0.3427   -2.4585    0.0000 Cl  0  0  0  0  0  0  0  0  0  0  0  0
    1.7716   -2.4585    0.0000 C   0  0  0  0  0  0  0  0  0  0  0  0
    2.4861   -2.0460    0.0000 C   0  0  0  0  0  0  0  0  0  0  0  0
    3.2006    0.0165    0.0000 O   0  0  0  0  0  0  0  0  0  0  0  0
    3.9150   -1.2210    0.0000 O   0  0  0  0  0  0  0  0  0  0  0  0
  1  2  1  0  0  0  0
  3  2  1  0  0  0  0
  3  4  1  0  0  0  0
  5  3  2  0  0  0  0
  6  5  1  0  0  0  0
  6  7  1  0  0  0  0
  8  6  2  0  0  0  0
  9  8  1  0  0  0  0
  2  9  2  0  0  0  0
  1 10  1  0  0  0  0
  1 11  2  0  0  0  0
M  END
> <ChemID>
100010

> <CAS>
50-84-0

> <Original_SMILES>
OC(=O)c1ccc(Cl)cc1Cl

> <preferred_name>
2,4-Dichlorobenzoic acid

> <dsstox_substance_id>
DTXSID0024977

> <dsstox_compound_id>
DTXCID104977

> <qc_level>
DSSTox_Low

> <Canonical_QSARr>
OC(=O)C1=CC=C(Cl)C=C1Cl

> <InChI_Code_QSARr>
InChI=1S/C7H4Cl2O2/c8-4-1-2-5(7(10)11)6(9)3-4/h1-3H,(H,10,11)

> <InChI Key_QSARr>
ATCRIUVQKHMXSH-UHFFFAOYSA-N

> <Salt_Solvent>


> <Salt_Solvent_ID>
0

> <MPID>
100026

> <Tr_1_Tst_0>
1

> <Ready_Biodeg>
0.0

$$$$
Row10
  Mrv171c012251911052D          

 12 12  0  0  0  0            999 V2000
    2.7984   -1.1578    0.0000 O   0  0  0  0  0  0  0  0  0  0  0  0
    2.0839   -1.5703    0.0000 C   0  0  0  0  0  0  0  0  0  0  0  0
    1.3694   -1.1578    0.0000 C   0  0  0  0  0  0  0  0  0  0  0  0
    1.3694   -0.3328    0.0000 O   0  0  0  0  0  0  0  0  0  0  0  0
    0.6549   -1.5703    0.0000 C   0  0  0  0  0  0  0  0  0  0  0  0
   -0.0595   -1.1578    0.0000 O   0  0  0  0  0  0  0  0  0  0  0  0
    0.6549   -2.3953    0.0000 O   0  0  0  0  0  0  0  0  0  0  0  0
    1.3694   -2.8078    0.0000 C   0  0  0  0  0  0  0  0  0  0  0  0
    1.3694   -3.6328    0.0000 C   0  0  0  0  0  0  0  0  0  0  0  0
    2.0839   -4.0453    0.0000 O   0  0  0  0  0  0  0  0  0  0  0  0
    2.0839   -2.3953    0.0000 C   0  0  0  0  0  0  0  0  0  0  0  0
    2.7984   -2.8078    0.0000 O   0  0  0  0  0  0  0  0  0  0  0  0
  1  2  1  0  0  0  0
  3  2  1  0  0  0  0
  3  4  1  0  0  0  0
  5  3  1  0  0  0  0
  5  6  1  0  0  0  0
  7  5  1  0  0  0  0
  8  7  1  0  0  0  0
  8  9  1  0  0  0  0
  9 10  1  0  0  0  0
 11  8  1  0  0  0  0
  2 11  1  0  0  0  0
 11 12  1  0  0  0  0
M  END
> <ChemID>
100011

> <CAS>
50-99-7

> <Original_SMILES>
OC[C@H]1OC(O)[C@H](O)[C@@H](O)[C@@H]1O

> <preferred_name>
D-Glucose

> <dsstox_substance_id>
DTXSID7022910

> <dsstox_compound_id>
DTXCID707720

> <qc_level>
DSSTox_High

> <Canonical_QSARr>
OCC1OC(O)C(O)C(O)C1O

> <InChI_Code_QSARr>
InChI=1S/C6H12O6/c7-1-2-3(8)4(9)5(10)6(11)12-2/h2-11H,1H2

> <InChI Key_QSARr>
WQZGKKKJIJFFOK-UHFFFAOYSA-N

> <Salt_Solvent>


> <Salt_Solvent_ID>
0

> <MPID>
100027

> <Tr_1_Tst_0>
1

> <Ready_Biodeg>
1.0

$$$$
Row11
  Mrv171c012251911052D          

 13 13  0  0  0  0            999 V2000
    2.6359   -2.9487    0.0000 O   0  0  0  0  0  0  0  0  0  0  0  0
    2.6359   -2.1237    0.0000 C   0  0  0  0  0  0  0  0  0  0  0  0
    3.3504   -1.7112    0.0000 C   0  0  0  0  0  0  0  0  0  0  0  0
    3.3504   -0.8862    0.0000 C   0  0  0  0  0  0  0  0  0  0  0  0
    2.6359   -0.4737    0.0000 C   0  0  0  0  0  0  0  0  0  0  0  0
    2.6359    0.3513    0.0000 N   0  3  0  0  0  0  0  0  0  0  0  0
    1.9215    0.7638    0.0000 O   0  5  0  0  0  0  0  0  0  0  0  0
    3.3504    0.7638    0.0000 O   0  0  0  0  0  0  0  0  0  0  0  0
    1.9215   -0.8862    0.0000 C   0  0  0  0  0  0  0  0  0  0  0  0
    1.9215   -1.7112    0.0000 C   0  0  0  0  0  0  0  0  0  0  0  0
    1.2070   -2.1237    0.0000 N   0  3  0  0  0  0  0  0  0  0  0  0
    1.2070   -2.9487    0.0000 O   0  5  0  0  0  0  0  0  0  0  0  0
    0.4925   -1.7112    0.0000 O   0  0  0  0  0  0  0  0  0  0  0  0
  1  2  1  0  0  0  0
  3  2  1  0  0  0  0
  4  3  2  0  0  0  0
  5  4  1  0  0  0  0
  5  6  1  0  0  0  0
  6  7  1  0  0  0  0
  6  8  2  0  0  0  0
  9  5  2  0  0  0  0
 10  9  1  0  0  0  0
  2 10  2  0  0  0  0
 10 11  1  0  0  0  0
 11 12  1  0  0  0  0
 11 13  2  0  0  0  0
M  CHG  4   6   1   7  -1  11   1  12  -1
M  END
> <ChemID>
100012

> <CAS>
51-28-5

> <Original_SMILES>
[O-][N+](=O)c1cc(ccc1O)[N+]([O-])=O

> <preferred_name>
2,4-Dinitrophenol

> <dsstox_substance_id>
DTXSID0020523

> <dsstox_compound_id>
DTXCID80523

> <qc_level>
DSSTox_Low

> <Canonical_QSARr>
[O-][N+](=O)C1C=C(C=CC=1O)[N+]([O-])=O

> <InChI_Code_QSARr>
InChI=1S/C6H4N2O5/c9-6-2-1-4(7(10)11)3-5(6)8(12)13/h1-3,9H

> <InChI Key_QSARr>
UFBJCMHMOXMLKC-UHFFFAOYSA-N

> <Salt_Solvent>


> <Salt_Solvent_ID>
0

> <MPID>
100028

> <Tr_1_Tst_0>
0

> <Ready_Biodeg>
0.0

$$$$
Row12
  Mrv171c012251911052D          

 11 11  0  0  0  0            999 V2000
    3.0507   -2.0835    0.0000 C   0  0  0  0  0  0  0  0  0  0  0  0
    2.3362   -1.6710    0.0000 C   0  0  0  0  0  0  0  0  0  0  0  0
    2.3362   -0.8460    0.0000 C   0  0  0  0  0  0  0  0  0  0  0  0
    1.6217   -0.4335    0.0000 C   0  0  0  0  0  0  0  0  0  0  0  0
    1.6217    0.3915    0.0000 Cl  0  0  0  0  0  0  0  0  0  0  0  0
    0.9073   -0.8460    0.0000 C   0  0  0  0  0  0  0  0  0  0  0  0
    0.1928   -0.4335    0.0000 Cl  0  0  0  0  0  0  0  0  0  0  0  0
    0.9073   -1.6710    0.0000 C   0  0  0  0  0  0  0  0  0  0  0  0
    1.6217   -2.0835    0.0000 C   0  0  0  0  0  0  0  0  0  0  0  0
    3.7651   -1.6710    0.0000 O   0  0  0  0  0  0  0  0  0  0  0  0
    3.0507   -2.9085    0.0000 O   0  0  0  0  0  0  0  0  0  0  0  0
  1  2  1  0  0  0  0
  3  2  1  0  0  0  0
  4  3  2  0  0  0  0
  4  5  1  0  0  0  0
  6  4  1  0  0  0  0
  6  7  1  0  0  0  0
  8  6  2  0  0  0  0
  9  8  1  0  0  0  0
  2  9  2  0  0  0  0
  1 10  1  0  0  0  0
  1 11  2  0  0  0  0
M  END
> <ChemID>
100013

> <CAS>
51-44-5

> <Original_SMILES>
OC(=O)c1cc(Cl)c(Cl)cc1

> <preferred_name>
3,4-Dichlorobenzoic acid

> <dsstox_substance_id>
DTXSID9024980

> <dsstox_compound_id>
DTXCID604980

> <qc_level>
DSSTox_Low

> <Canonical_QSARr>
OC(=O)C1C=C(Cl)C(Cl)=CC=1

> <InChI_Code_QSARr>
InChI=1S/C7H4Cl2O2/c8-5-2-1-4(7(10)11)3-6(5)9/h1-3H,(H,10,11)

> <InChI Key_QSARr>
VPHHJAOJUJHJKD-UHFFFAOYSA-N

> <Salt_Solvent>


> <Salt_Solvent_ID>
0

> <MPID>
100029

> <Tr_1_Tst_0>
1

> <Ready_Biodeg>
0.0

$$$$
Row13
  Mrv171c012251911052D          

 12 11  0  0  0  0            999 V2000
    0.9717   -1.7855    0.0000 P   0  0  0  0  0  0  0  0  0  0  0  0
    0.2573   -2.1980    0.0000 O   0  0  0  0  0  0  0  0  0  0  0  0
    0.2573   -3.0230    0.0000 C   0  0  0  0  0  0  0  0  0  0  0  0
    1.3842   -2.4999    0.0000 O   0  0  0  0  0  0  0  0  0  0  0  0
    2.2092   -2.4999    0.0000 C   0  0  0  0  0  0  0  0  0  0  0  0
    0.5592   -1.0710    0.0000 O   0  0  0  0  0  0  0  0  0  0  0  0
    1.6862   -1.3730    0.0000 C   0  0  0  0  0  0  0  0  0  0  0  0
    2.4007   -1.7855    0.0000 O   0  0  0  0  0  0  0  0  0  0  0  0
    1.6862   -0.5480    0.0000 C   0  0  0  0  0  0  0  0  0  0  0  0
    1.6862    0.2770    0.0000 Cl  0  0  0  0  0  0  0  0  0  0  0  0
    2.5112   -0.5480    0.0000 Cl  0  0  0  0  0  0  0  0  0  0  0  0
    0.8612   -0.5480    0.0000 Cl  0  0  0  0  0  0  0  0  0  0  0  0
  1  2  1  0  0  0  0
  2  3  1  0  0  0  0
  1  4  1  0  0  0  0
  4  5  1  0  0  0  0
  1  6  2  0  0  0  0
  1  7  1  0  0  0  0
  7  8  1  0  0  0  0
  7  9  1  0  0  0  0
  9 10  1  0  0  0  0
  9 11  1  0  0  0  0
  9 12  1  0  0  0  0
M  END
> <ChemID>
100014

> <CAS>
52-68-6

> <Original_SMILES>
COP(=O)(OC)C(O)C(Cl)(Cl)Cl

> <preferred_name>
Trichlorfon

> <dsstox_substance_id>
DTXSID0021389

> <dsstox_compound_id>
DTXCID701389

> <qc_level>
DSSTox_Low

> <Canonical_QSARr>
COP(=O)(OC)C(O)C(Cl)(Cl)Cl

> <InChI_Code_QSARr>
InChI=1S/C4H8Cl3O4P/c1-10-12(9,11-2)3(8)4(5,6)7/h3,8H,1-2H3

> <InChI Key_QSARr>
NFACJZMKEDPNKN-UHFFFAOYSA-N

> <Salt_Solvent>


> <Salt_Solvent_ID>
0

> <MPID>
100030

> <Tr_1_Tst_0>
1

> <Ready_Biodeg>
0.0

$$$$
Row14
  Mrv171c012251911052D          

 19 19  0  0  0  0            999 V2000
    2.6715   -3.5565    0.0000 S   0  0  0  0  0  0  0  0  0  0  0  0
    3.4965   -3.5565    0.0000 O   0  0  0  0  0  0  0  0  0  0  0  0
    1.8465   -3.5565    0.0000 O   0  0  0  0  0  0  0  0  0  0  0  0
    2.6715   -4.3815    0.0000 N   0  0  0  0  0  0  0  0  0  0  0  0
    1.9570   -4.7940    0.0000 C   0  0  0  0  0  0  0  0  0  0  0  0
    3.3859   -4.7940    0.0000 C   0  0  0  0  0  0  0  0  0  0  0  0
    2.6715   -2.7315    0.0000 C   0  0  0  0  0  0  0  0  0  0  0  0
    3.3859   -2.3190    0.0000 C   0  0  0  0  0  0  0  0  0  0  0  0
    3.3859   -1.4940    0.0000 C   0  0  0  0  0  0  0  0  0  0  0  0
    2.6715   -1.0815    0.0000 C   0  0  0  0  0  0  0  0  0  0  0  0
    2.6715   -0.2565    0.0000 O   0  0  0  0  0  0  0  0  0  0  0  0
    3.3859    0.1560    0.0000 P   0  0  0  0  0  0  0  0  0  0  0  0
    4.1004    0.5685    0.0000 O   0  0  0  0  0  0  0  0  0  0  0  0
    4.1004    1.3935    0.0000 C   0  0  0  0  0  0  0  0  0  0  0  0
    3.7984   -0.5585    0.0000 O   0  0  0  0  0  0  0  0  0  0  0  0
    4.6234   -0.5585    0.0000 C   0  0  0  0  0  0  0  0  0  0  0  0
    2.9734    0.8704    0.0000 S   0  0  0  0  0  0  0  0  0  0  0  0
    1.9570   -1.4940    0.0000 C   0  0  0  0  0  0  0  0  0  0  0  0
    1.9570   -2.3190    0.0000 C   0  0  0  0  0  0  0  0  0  0  0  0
  1  2  2  0  0  0  0
  1  3  2  0  0  0  0
  1  4  1  0  0  0  0
  4  5  1  0  0  0  0
  4  6  1  0  0  0  0
  1  7  1  0  0  0  0
  8  7  2  0  0  0  0
  9  8  1  0  0  0  0
 10  9  2  0  0  0  0
 10 11  1  0  0  0  0
 11 12  1  0  0  0  0
 12 13  1  0  0  0  0
 13 14  1  0  0  0  0
 12 15  1  0  0  0  0
 15 16  1  0  0  0  0
 12 17  2  0  0  0  0
 18 10  1  0  0  0  0
 19 18  2  0  0  0  0
  7 19  1  0  0  0  0
M  END
> <ChemID>
100015

> <CAS>
52-85-7

> <Original_SMILES>
CN(C)S(=O)(=O)c1ccc(cc1)OP(=S)(OC)OC

> <preferred_name>
Famphur

> <dsstox_substance_id>
DTXSID7041966

> <dsstox_compound_id>
DTXCID5021966

> <qc_level>
DSSTox_Low

> <Canonical_QSARr>
CN(C)S(=O)(=O)C1C=CC(=CC=1)OP(=S)(OC)OC

> <InChI_Code_QSARr>
InChI=1S/C10H16NO5PS2/c1-11(2)19(12,13)10-7-5-9(6-8-10)16-17(18,14-3)15-4/h5-8H,1-4H3

> <InChI Key_QSARr>
JISACBWYRJHSMG-UHFFFAOYSA-N

> <Salt_Solvent>


> <Salt_Solvent_ID>
0

> <MPID>
100031

> <Tr_1_Tst_0>
1

> <Ready_Biodeg>
1.0

$$$$
Row15
  Mrv171c012251911052D          

 22 26  0  0  0  0            999 V2000
    3.7119   -2.1422    0.0000 C   0  0  0  0  0  0  0  0  0  0  0  0
    4.1244   -1.4277    0.0000 C   0  0  0  0  0  0  0  0  0  0  0  0
    4.9494   -1.4277    0.0000 C   0  0  0  0  0  0  0  0  0  0  0  0
    5.3619   -2.1422    0.0000 C   0  0  0  0  0  0  0  0  0  0  0  0
    6.1869   -2.1422    0.0000 C   0  0  0  0  0  0  0  0  0  0  0  0
    6.5994   -1.4277    0.0000 C   0  0  0  0  0  0  0  0  0  0  0  0
    6.1869   -0.7133    0.0000 C   0  0  0  0  0  0  0  0  0  0  0  0
    5.3619   -0.7133    0.0000 C   0  0  0  0  0  0  0  0  0  0  0  0
    4.9494    0.0012    0.0000 C   0  0  0  0  0  0  0  0  0  0  0  0
    4.1244    0.0012    0.0000 C   0  0  0  0  0  0  0  0  0  0  0  0
    3.7119   -0.7133    0.0000 C   0  0  0  0  0  0  0  0  0  0  0  0
    2.8869   -0.7133    0.0000 C   0  0  0  0  0  0  0  0  0  0  0  0
    2.4744   -1.4277    0.0000 C   0  0  0  0  0  0  0  0  0  0  0  0
    1.6494   -1.4277    0.0000 C   0  0  0  0  0  0  0  0  0  0  0  0
    1.2369   -0.7133    0.0000 C   0  0  0  0  0  0  0  0  0  0  0  0
    0.4119   -0.7133    0.0000 C   0  0  0  0  0  0  0  0  0  0  0  0
   -0.0006   -1.4277    0.0000 C   0  0  0  0  0  0  0  0  0  0  0  0
    0.4119   -2.1422    0.0000 C   0  0  0  0  0  0  0  0  0  0  0  0
    1.2369   -2.1422    0.0000 C   0  0  0  0  0  0  0  0  0  0  0  0
    1.6494   -2.8567    0.0000 C   0  0  0  0  0  0  0  0  0  0  0  0
    2.4744   -2.8567    0.0000 C   0  0  0  0  0  0  0  0  0  0  0  0
    2.8869   -2.1422    0.0000 C   0  0  0  0  0  0  0  0  0  0  0  0
  2  1  1  0  0  0  0
  2  3  2  0  0  0  0
  4  3  1  0  0  0  0
  5  4  2  0  0  0  0
  6  5  1  0  0  0  0
  7  6  2  0  0  0  0
  8  7  1  0  0  0  0
  3  8  1  0  0  0  0
  8  9  2  0  0  0  0
  9 10  1  0  0  0  0
 10 11  2  0  0  0  0
 11  2  1  0  0  0  0
 12 11  1  0  0  0  0
 13 12  2  0  0  0  0
 13 14  1  0  0  0  0
 15 14  2  0  0  0  0
 16 15  1  0  0  0  0
 17 16  2  0  0  0  0
 18 17  1  0  0  0  0
 19 18  2  0  0  0  0
 14 19  1  0  0  0  0
 19 20  1  0  0  0  0
 20 21  2  0  0  0  0
 21 22  1  0  0  0  0
  1 22  2  0  0  0  0
 22 13  1  0  0  0  0
M  END
> <ChemID>
100016

> <CAS>
53-70-3

> <Original_SMILES>
c1c2c3ccccc3ccc2cc2c3ccccc3ccc21

> <preferred_name>
Dibenz(a,h)anthracene

> <dsstox_substance_id>
DTXSID9020409

> <dsstox_compound_id>
DTXCID10409

> <qc_level>
DSSTox_Low

> <Canonical_QSARr>
C1=C2C3=CC=CC=C3C=CC2=CC2=C3C=CC=CC3=CC=C21

> <InChI_Code_QSARr>
InChI=1S/C22H14/c1-3-7-19-15(5-1)9-11-17-14-22-18(13-21(17)19)12-10-16-6-2-4-8-20(16)22/h1-14H

> <InChI Key_QSARr>
LHRCREOYAASXPZ-UHFFFAOYSA-N

> <Salt_Solvent>


> <Salt_Solvent_ID>
0

> <MPID>
100032

> <Tr_1_Tst_0>
0

> <Ready_Biodeg>
0.0

$$$$
Row16
  Mrv171c012251911052D          

  7  6  0  0  0  0            999 V2000
    2.9435   -1.6746    0.0000 C   0  0  0  0  0  0  0  0  0  0  0  0
    2.5310   -0.9601    0.0000 C   0  0  0  0  0  0  0  0  0  0  0  0
    1.7060   -0.9601    0.0000 N   0  0  0  0  0  0  0  0  0  0  0  0
    1.2935   -0.2456    0.0000 N   0  0  0  0  0  0  0  0  0  0  0  0
    0.4685   -0.2456    0.0000 O   0  0  0  0  0  0  0  0  0  0  0  0
    1.2935   -1.6746    0.0000 C   0  0  0  0  0  0  0  0  0  0  0  0
    0.4685   -1.6746    0.0000 C   0  0  0  0  0  0  0  0  0  0  0  0
  1  2  1  0  0  0  0
  2  3  1  0  0  0  0
  3  4  1  0  0  0  0
  4  5  2  0  0  0  0
  3  6  1  0  0  0  0
  6  7  1  0  0  0  0
M  END
> <ChemID>
100017

> <CAS>
55-18-5

> <Original_SMILES>
CCN(CC)N=O

> <preferred_name>
N-Nitrosodiethylamine

> <dsstox_substance_id>
DTXSID2021028

> <dsstox_compound_id>
DTXCID901028

> <qc_level>
DSSTox_Low

> <Canonical_QSARr>
CCN(CC)N=O

> <InChI_Code_QSARr>
InChI=1S/C4H10N2O/c1-3-6(4-2)5-7/h3-4H2,1-2H3

> <InChI Key_QSARr>
WBNQDOYYEUMPFS-UHFFFAOYSA-N

> <Salt_Solvent>


> <Salt_Solvent_ID>
0

> <MPID>
100033

> <Tr_1_Tst_0>
1

> <Ready_Biodeg>
0.0

$$$$
Row17
  Mrv171c012251911052D          

  5  4  0  0  0  0            999 V2000
    0.8250   -1.6500    0.0000 Cl  0  0  0  0  0  0  0  0  0  0  0  0
    0.8250   -0.8250    0.0000 C   0  0  0  0  0  0  0  0  0  0  0  0
    0.8250    0.0000    0.0000 Cl  0  0  0  0  0  0  0  0  0  0  0  0
    1.6500   -0.8250    0.0000 Cl  0  0  0  0  0  0  0  0  0  0  0  0
    0.0000   -0.8250    0.0000 Cl  0  0  0  0  0  0  0  0  0  0  0  0
  1  2  1  0  0  0  0
  2  3  1  0  0  0  0
  2  4  1  0  0  0  0
  2  5  1  0  0  0  0
M  END
> <ChemID>
100018

> <CAS>
56-23-5

> <Original_SMILES>
ClC(Cl)(Cl)Cl

> <preferred_name>
Carbon tetrachloride

> <dsstox_substance_id>
DTXSID8020250

> <dsstox_compound_id>
DTXCID20250

> <qc_level>
DSSTox_Low

> <Canonical_QSARr>
ClC(Cl)(Cl)Cl

> <InChI_Code_QSARr>
InChI=1S/CCl4/c2-1(3,4)5

> <InChI Key_QSARr>
VZGDMQKNWNREIO-UHFFFAOYSA-N

> <Salt_Solvent>


> <Salt_Solvent_ID>
0

> <MPID>
100034

> <Tr_1_Tst_0>
1

> <Ready_Biodeg>
0.0

$$$$
Row18
  Mrv171c012251911052D          

 21 25  0  0  0  0            999 V2000
   -0.1803   -1.6094    0.0000 C   0  0  0  0  0  0  0  0  0  0  0  0
    0.5896   -1.3132    0.0000 C   0  0  0  0  0  0  0  0  0  0  0  0
    0.7181   -0.4983    0.0000 C   0  0  0  0  0  0  0  0  0  0  0  0
    1.4881   -0.2020    0.0000 C   0  0  0  0  0  0  0  0  0  0  0  0
    2.1296   -0.7207    0.0000 C   0  0  0  0  0  0  0  0  0  0  0  0
    2.0012   -1.5357    0.0000 C   0  0  0  0  0  0  0  0  0  0  0  0
    2.5208   -2.1764    0.0000 C   0  0  0  0  0  0  0  0  0  0  0  0
    3.3356   -2.0467    0.0000 C   0  0  0  0  0  0  0  0  0  0  0  0
    3.8553   -2.6875    0.0000 C   0  0  0  0  0  0  0  0  0  0  0  0
    4.6700   -2.5578    0.0000 C   0  0  0  0  0  0  0  0  0  0  0  0
    4.9651   -1.7874    0.0000 C   0  0  0  0  0  0  0  0  0  0  0  0
    5.7798   -1.6577    0.0000 C   0  0  0  0  0  0  0  0  0  0  0  0
    6.0749   -0.8873    0.0000 C   0  0  0  0  0  0  0  0  0  0  0  0
    5.5552   -0.2465    0.0000 C   0  0  0  0  0  0  0  0  0  0  0  0
    4.7405   -0.3762    0.0000 C   0  0  0  0  0  0  0  0  0  0  0  0
    4.4454   -1.1466    0.0000 C   0  0  0  0  0  0  0  0  0  0  0  0
    3.6306   -1.2763    0.0000 C   0  0  0  0  0  0  0  0  0  0  0  0
    3.1110   -0.6356    0.0000 C   0  0  0  0  0  0  0  0  0  0  0  0
    2.0720   -2.8687    0.0000 C   0  0  0  0  0  0  0  0  0  0  0  0
    1.2750   -2.6557    0.0000 C   0  0  0  0  0  0  0  0  0  0  0  0
    1.2312   -1.8319    0.0000 C   0  0  0  0  0  0  0  0  0  0  0  0
  1  2  1  0  0  0  0
  3  2  1  0  0  0  0
  4  3  2  0  0  0  0
  5  4  1  0  0  0  0
  5  6  2  0  0  0  0
  6  7  1  0  0  0  0
  7  8  2  0  0  0  0
  9  8  1  0  0  0  0
 10  9  2  0  0  0  0
 11 10  1  0  0  0  0
 11 12  2  0  0  0  0
 12 13  1  0  0  0  0
 13 14  2  0  0  0  0
 14 15  1  0  0  0  0
 15 16  2  0  0  0  0
 16 11  1  0  0  0  0
 17 16  1  0  0  0  0
  8 17  1  0  0  0  0
 17 18  2  0  0  0  0
 18  5  1  0  0  0  0
  7 19  1  0  0  0  0
 19 20  1  0  0  0  0
 20 21  1  0  0  0  0
  2 21  2  0  0  0  0
 21  6  1  0  0  0  0
M  END
> <ChemID>
100020

> <CAS>
56-49-5

> <Original_SMILES>
Cc1ccc2cc3c(ccc4ccccc43)c3CCc1c32

> <preferred_name>
3-Methylcholanthrene

> <dsstox_substance_id>
DTXSID0020862

> <dsstox_compound_id>
DTXCID60862

> <qc_level>
DSSTox_Low

> <Canonical_QSARr>
CC1C=CC2C=C3C4=CC=CC=C4C=CC3=C3CCC=1C3=2

> <InChI_Code_QSARr>
InChI=1S/C21H16/c1-13-6-7-15-12-20-17-5-3-2-4-14(17)8-9-18(20)19-11-10-16(13)21(15)19/h2-9,12H,10-11H2,1H3

> <InChI Key_QSARr>
PPQNQXQZIWHJRB-UHFFFAOYSA-N

> <Salt_Solvent>


> <Salt_Solvent_ID>
0

> <MPID>
100035

> <Tr_1_Tst_0>
1

> <Ready_Biodeg>
0.0

$$$$
Row19
  Mrv171c012251911052D          

 18 21  0  0  0  0            999 V2000
    2.8633   -1.7226    0.0000 C   0  0  0  0  0  0  0  0  0  0  0  0
    3.6734   -1.5667    0.0000 C   0  0  0  0  0  0  0  0  0  0  0  0
    3.9434   -0.7872    0.0000 C   0  0  0  0  0  0  0  0  0  0  0  0
    4.7536   -0.6313    0.0000 C   0  0  0  0  0  0  0  0  0  0  0  0
    5.2937   -1.2549    0.0000 C   0  0  0  0  0  0  0  0  0  0  0  0
    5.0236   -2.0345    0.0000 C   0  0  0  0  0  0  0  0  0  0  0  0
    4.2135   -2.1904    0.0000 C   0  0  0  0  0  0  0  0  0  0  0  0
    3.9434   -2.9699    0.0000 C   0  0  0  0  0  0  0  0  0  0  0  0
    3.1333   -3.1258    0.0000 C   0  0  0  0  0  0  0  0  0  0  0  0
    2.5932   -2.5022    0.0000 C   0  0  0  0  0  0  0  0  0  0  0  0
    1.7831   -2.6581    0.0000 C   0  0  0  0  0  0  0  0  0  0  0  0
    1.2430   -2.0345    0.0000 C   0  0  0  0  0  0  0  0  0  0  0  0
    0.4329   -2.1904    0.0000 C   0  0  0  0  0  0  0  0  0  0  0  0
   -0.1072   -1.5667    0.0000 C   0  0  0  0  0  0  0  0  0  0  0  0
    0.1628   -0.7872    0.0000 C   0  0  0  0  0  0  0  0  0  0  0  0
    0.9730   -0.6313    0.0000 C   0  0  0  0  0  0  0  0  0  0  0  0
    1.5130   -1.2549    0.0000 C   0  0  0  0  0  0  0  0  0  0  0  0
    2.3232   -1.0990    0.0000 C   0  0  0  0  0  0  0  0  0  0  0  0
  2  1  1  0  0  0  0
  2  3  1  0  0  0  0
  3  4  2  0  0  0  0
  4  5  1  0  0  0  0
  5  6  2  0  0  0  0
  6  7  1  0  0  0  0
  7  2  2  0  0  0  0
  8  7  1  0  0  0  0
  9  8  2  0  0  0  0
 10  9  1  0  0  0  0
 10  1  1  0  0  0  0
 11 10  2  0  0  0  0
 12 11  1  0  0  0  0
 12 13  1  0  0  0  0
 13 14  2  0  0  0  0
 14 15  1  0  0  0  0
 15 16  2  0  0  0  0
 16 17  1  0  0  0  0
 17 12  2  0  0  0  0
 18 17  1  0  0  0  0
  1 18  2  0  0  0  0
M  END
> <ChemID>
100021

> <CAS>
56-55-3

> <Original_SMILES>
c1c2c3ccccc3ccc2cc2ccccc21

> <preferred_name>
Benz(a)anthracene

> <dsstox_substance_id>
DTXSID5023902

> <dsstox_compound_id>
DTXCID903902

> <qc_level>
DSSTox_Low

> <Canonical_QSARr>
C1=C2C3C=CC=CC=3C=CC2=CC2C=CC=CC=21

> <InChI_Code_QSARr>
InChI=1S/C18H12/c1-2-7-15-12-18-16(11-14(15)6-1)10-9-13-5-3-4-8-17(13)18/h1-12H

> <InChI Key_QSARr>
DXBHBZVCASKNBY-UHFFFAOYSA-N

> <Salt_Solvent>


> <Salt_Solvent_ID>
0

> <MPID>
100036

> <Tr_1_Tst_0>
0

> <Ready_Biodeg>
0.0

$$$$
Row20
  Mrv171c012251911052D          

  6  5  0  0  0  0            999 V2000
    1.4206   -0.4087    0.0000 C   0  0  0  0  0  0  0  0  0  0  0  0
    1.8331   -1.1232    0.0000 C   0  0  0  0  0  0  0  0  0  0  0  0
    1.4206   -1.8377    0.0000 O   0  0  0  0  0  0  0  0  0  0  0  0
    1.8331    0.3057    0.0000 C   0  0  0  0  0  0  0  0  0  0  0  0
    1.4206    1.0202    0.0000 O   0  0  0  0  0  0  0  0  0  0  0  0
    0.5956   -0.4087    0.0000 O   0  0  0  0  0  0  0  0  0  0  0  0
  1  2  1  0  0  0  0
  2  3  1  0  0  0  0
  1  4  1  0  0  0  0
  4  5  1  0  0  0  0
  1  6  1  0  0  0  0
M  END
> <ChemID>
100022

> <CAS>
56-81-5

> <Original_SMILES>
OC(CO)CO

> <preferred_name>
Glycerol

> <dsstox_substance_id>
DTXSID9020663

> <dsstox_compound_id>
DTXCID40662

> <qc_level>
DSSTox_High

> <Canonical_QSARr>
OC(CO)CO

> <InChI_Code_QSARr>
InChI=1S/C3H8O3/c4-1-3(6)2-5/h3-6H,1-2H2

> <InChI Key_QSARr>
PEDCQBHIVMGVHV-UHFFFAOYSA-N

> <Salt_Solvent>


> <Salt_Solvent_ID>
0

> <MPID>
100037

> <Tr_1_Tst_0>
1

> <Ready_Biodeg>
1.0

$$$$
Row21
  Mrv171c012251911052D          

  9  8  0  0  0  0            999 V2000
    0.0097   -1.4681    0.0000 O   0  0  0  0  0  0  0  0  0  0  0  0
    0.7242   -1.0556    0.0000 C   0  0  0  0  0  0  0  0  0  0  0  0
    1.4387   -1.4681    0.0000 C   0  0  0  0  0  0  0  0  0  0  0  0
    2.1531   -1.0556    0.0000 C   0  0  0  0  0  0  0  0  0  0  0  0
    2.8676   -1.4681    0.0000 C   0  0  0  0  0  0  0  0  0  0  0  0
    3.5821   -1.0556    0.0000 O   0  0  0  0  0  0  0  0  0  0  0  0
    2.8676   -2.2931    0.0000 O   0  0  0  0  0  0  0  0  0  0  0  0
    2.1531   -0.2306    0.0000 N   0  0  0  0  0  0  0  0  0  0  0  0
    0.7242   -0.2306    0.0000 O   0  0  0  0  0  0  0  0  0  0  0  0
  1  2  1  0  0  0  0
  2  3  1  0  0  0  0
  3  4  1  0  0  0  0
  4  5  1  0  0  0  0
  5  6  2  0  0  0  0
  5  7  1  0  0  0  0
  4  8  1  0  0  0  0
  2  9  2  0  0  0  0
M  END
> <ChemID>
100023

> <CAS>
56-84-8

> <Original_SMILES>
N[C@@H](CC(O)=O)C(O)=O

> <preferred_name>
L-Aspartic acid

> <dsstox_substance_id>
DTXSID7022621

> <dsstox_compound_id>
DTXCID402621

> <qc_level>
DSSTox_High

> <Canonical_QSARr>
NC(CC(O)=O)C(O)=O

> <InChI_Code_QSARr>
InChI=1S/C4H7NO4/c5-2(4(8)9)1-3(6)7/h2H,1,5H2,(H,6,7)(H,8,9)

> <InChI Key_QSARr>
CKLJMWTZIZZHCS-UHFFFAOYSA-N

> <Salt_Solvent>


> <Salt_Solvent_ID>
0

> <MPID>
100038

> <Tr_1_Tst_0>
1

> <Ready_Biodeg>
1.0

$$$$
Row22
  Mrv171c012251911052D          

 10  9  0  0  0  0            999 V2000
    0.8484   -1.0708    0.0000 C   0  0  0  0  0  0  0  0  0  0  0  0
    0.1340   -0.6583    0.0000 O   0  0  0  0  0  0  0  0  0  0  0  0
    1.5629   -0.6583    0.0000 C   0  0  0  0  0  0  0  0  0  0  0  0
    1.5629    0.1667    0.0000 N   0  0  0  0  0  0  0  0  0  0  0  0
    2.2774   -1.0708    0.0000 C   0  0  0  0  0  0  0  0  0  0  0  0
    2.9918   -0.6583    0.0000 C   0  0  0  0  0  0  0  0  0  0  0  0
    3.7063   -1.0708    0.0000 C   0  0  0  0  0  0  0  0  0  0  0  0
    4.4208   -0.6583    0.0000 O   0  0  0  0  0  0  0  0  0  0  0  0
    3.7063   -1.8958    0.0000 O   0  0  0  0  0  0  0  0  0  0  0  0
    0.8484   -1.8958    0.0000 O   0  0  0  0  0  0  0  0  0  0  0  0
  1  2  1  0  0  0  0
  1  3  1  0  0  0  0
  3  4  1  0  0  0  0
  3  5  1  0  0  0  0
  5  6  1  0  0  0  0
  6  7  1  0  0  0  0
  7  8  1  0  0  0  0
  7  9  2  0  0  0  0
  1 10  2  0  0  0  0
M  END
> <ChemID>
100024

> <CAS>
56-86-0

> <Original_SMILES>
N[C@@H](CCC(O)=O)C(O)=O

> <preferred_name>
L-Glutamic acid

> <dsstox_substance_id>
DTXSID5020659

> <dsstox_compound_id>
DTXCID30659

> <qc_level>
DSSTox_Low

> <Canonical_QSARr>
NC(CCC(O)=O)C(O)=O

> <InChI_Code_QSARr>
InChI=1S/C5H9NO4/c6-3(5(9)10)1-2-4(7)8/h3H,1-2,6H2,(H,7,8)(H,9,10)

> <InChI Key_QSARr>
WHUUTDBJXJRKMK-UHFFFAOYSA-N

> <Salt_Solvent>


> <Salt_Solvent_ID>
0

> <MPID>
100039

> <Tr_1_Tst_0>
1

> <Ready_Biodeg>
1.0

$$$$
Row23
  Mrv171c001112021182D          

 20 19  0  0  0  0            999 V2000
   -0.0356    0.0206    0.0000 N   0  3  0  0  0  0  0  0  0  0  0  0
   -0.7501    0.4331    0.0000 C   0  0  0  0  0  0  0  0  0  0  0  0
   -0.4481   -0.6938    0.0000 C   0  0  0  0  0  0  0  0  0  0  0  0
    0.3769    0.7351    0.0000 C   0  0  0  0  0  0  0  0  0  0  0  0
    0.6789   -0.3919    0.0000 C   0  0  0  0  0  0  0  0  0  0  0  0
    1.3933    0.0206    0.0000 C   0  0  0  0  0  0  0  0  0  0  0  0
    2.1078   -0.3919    0.0000 C   0  0  0  0  0  0  0  0  0  0  0  0
    2.8223    0.0206    0.0000 C   0  0  0  0  0  0  0  0  0  0  0  0
    3.5367   -0.3919    0.0000 C   0  0  0  0  0  0  0  0  0  0  0  0
    4.2512    0.0206    0.0000 C   0  0  0  0  0  0  0  0  0  0  0  0
    4.9657   -0.3919    0.0000 C   0  0  0  0  0  0  0  0  0  0  0  0
    5.6802    0.0206    0.0000 C   0  0  0  0  0  0  0  0  0  0  0  0
    6.3946   -0.3919    0.0000 C   0  0  0  0  0  0  0  0  0  0  0  0
    7.1091    0.0206    0.0000 C   0  0  0  0  0  0  0  0  0  0  0  0
    7.8236   -0.3919    0.0000 C   0  0  0  0  0  0  0  0  0  0  0  0
    8.5380    0.0206    0.0000 C   0  0  0  0  0  0  0  0  0  0  0  0
    9.2525   -0.3919    0.0000 C   0  0  0  0  0  0  0  0  0  0  0  0
    9.9670    0.0206    0.0000 C   0  0  0  0  0  0  0  0  0  0  0  0
   10.6815   -0.3919    0.0000 C   0  0  0  0  0  0  0  0  0  0  0  0
   11.3959    0.0206    0.0000 C   0  0  0  0  0  0  0  0  0  0  0  0
  1  2  1  0  0  0  0
  1  3  1  0  0  0  0
  1  4  1  0  0  0  0
  1  5  1  0  0  0  0
  5  6  1  0  0  0  0
  6  7  1  0  0  0  0
  7  8  1  0  0  0  0
  8  9  1  0  0  0  0
  9 10  1  0  0  0  0
 10 11  1  0  0  0  0
 11 12  1  0  0  0  0
 12 13  1  0  0  0  0
 13 14  1  0  0  0  0
 14 15  1  0  0  0  0
 15 16  1  0  0  0  0
 16 17  1  0  0  0  0
 17 18  1  0  0  0  0
 18 19  1  0  0  0  0
 19 20  1  0  0  0  0
M  CHG  1   1   1
M  END
> <ChemID>
100026

> <CAS>
57-09-0

> <Original_SMILES>
[Br-].CCCCCCCCCCCCCCCC[N+](C)(C)C

> <preferred_name>
Hexadecyltrimethylammonium bromide

> <dsstox_substance_id>
DTXSID5037028

> <dsstox_compound_id>
DTXCID3017028

> <qc_level>
DSSTox_Low

> <Canonical_QSARr>
CCCCCCCCCCCCCCCC[N+](C)(C)C

> <InChI_Code_QSARr>
InChI=1S/C19H42N/c1-5-6-7-8-9-10-11-12-13-14-15-16-17-18-19-20(2,3)4/h5-19H2,1-4H3/q+1

> <InChI Key_QSARr>
RLGQACBPNDBWTB-UHFFFAOYSA-N

> <Salt_Solvent>
[Br-]

> <Salt_Solvent_ID>
350

> <MPID>
100040

> <Tr_1_Tst_0>
0

> <Ready_Biodeg>
0.0

$$$$
Row24
  Mrv171c012251911052D          

 18 17  0  0  0  0            999 V2000
    0.3936   -0.9648    0.0000 O   0  0  0  0  0  0  0  0  0  0  0  0
    1.1081   -1.3773    0.0000 C   0  0  0  0  0  0  0  0  0  0  0  0
    1.8226   -0.9648    0.0000 C   0  0  0  0  0  0  0  0  0  0  0  0
    2.5370   -1.3773    0.0000 C   0  0  0  0  0  0  0  0  0  0  0  0
    3.2515   -0.9648    0.0000 C   0  0  0  0  0  0  0  0  0  0  0  0
    3.9660   -1.3773    0.0000 C   0  0  0  0  0  0  0  0  0  0  0  0
    4.6805   -0.9648    0.0000 C   0  0  0  0  0  0  0  0  0  0  0  0
    5.3949   -1.3773    0.0000 C   0  0  0  0  0  0  0  0  0  0  0  0
    6.1094   -0.9648    0.0000 C   0  0  0  0  0  0  0  0  0  0  0  0
    6.8239   -1.3773    0.0000 C   0  0  0  0  0  0  0  0  0  0  0  0
    7.5383   -0.9648    0.0000 C   0  0  0  0  0  0  0  0  0  0  0  0
    8.2528   -1.3773    0.0000 C   0  0  0  0  0  0  0  0  0  0  0  0
    8.9673   -0.9648    0.0000 C   0  0  0  0  0  0  0  0  0  0  0  0
    9.6818   -1.3773    0.0000 C   0  0  0  0  0  0  0  0  0  0  0  0
   10.3962   -0.9648    0.0000 C   0  0  0  0  0  0  0  0  0  0  0  0
   11.1107   -1.3773    0.0000 C   0  0  0  0  0  0  0  0  0  0  0  0
   11.8252   -0.9648    0.0000 C   0  0  0  0  0  0  0  0  0  0  0  0
    1.1081   -2.2023    0.0000 O   0  0  0  0  0  0  0  0  0  0  0  0
  1  2  1  0  0  0  0
  2  3  1  0  0  0  0
  3  4  1  0  0  0  0
  4  5  1  0  0  0  0
  5  6  1  0  0  0  0
  6  7  1  0  0  0  0
  7  8  1  0  0  0  0
  8  9  1  0  0  0  0
  9 10  1  0  0  0  0
 10 11  1  0  0  0  0
 11 12  1  0  0  0  0
 12 13  1  0  0  0  0
 13 14  1  0  0  0  0
 14 15  1  0  0  0  0
 15 16  1  0  0  0  0
 16 17  1  0  0  0  0
  2 18  2  0  0  0  0
M  END
> <ChemID>
100027

> <CAS>
57-10-3

> <Original_SMILES>
CCCCCCCCCCCCCCCC(O)=O

> <preferred_name>
Hexadecanoic acid

> <dsstox_substance_id>
DTXSID2021602

> <dsstox_compound_id>
DTXCID101602

> <qc_level>
DSSTox_Low

> <Canonical_QSARr>
CCCCCCCCCCCCCCCC(O)=O

> <InChI_Code_QSARr>
InChI=1S/C16H32O2/c1-2-3-4-5-6-7-8-9-10-11-12-13-14-15-16(17)18/h2-15H2,1H3,(H,17,18)

> <InChI Key_QSARr>
IPCSVZSSVZVIGE-UHFFFAOYSA-N

> <Salt_Solvent>


> <Salt_Solvent_ID>
0

> <MPID>
100041

> <Tr_1_Tst_0>
0

> <Ready_Biodeg>
1.0

$$$$
Row25
  Mrv171c012251911052D          

 20 19  0  0  0  0            999 V2000
   -0.0355   -0.7350    0.0000 C   0  0  0  0  0  0  0  0  0  0  0  0
    0.6790   -1.1475    0.0000 C   0  0  0  0  0  0  0  0  0  0  0  0
    1.3934   -0.7350    0.0000 C   0  0  0  0  0  0  0  0  0  0  0  0
    2.1079   -1.1475    0.0000 C   0  0  0  0  0  0  0  0  0  0  0  0
    2.8224   -0.7350    0.0000 C   0  0  0  0  0  0  0  0  0  0  0  0
    3.5369   -1.1475    0.0000 C   0  0  0  0  0  0  0  0  0  0  0  0
    4.2513   -0.7350    0.0000 C   0  0  0  0  0  0  0  0  0  0  0  0
    4.9658   -1.1475    0.0000 C   0  0  0  0  0  0  0  0  0  0  0  0
    5.6803   -0.7350    0.0000 C   0  0  0  0  0  0  0  0  0  0  0  0
    6.3947   -1.1475    0.0000 C   0  0  0  0  0  0  0  0  0  0  0  0
    7.1092   -0.7350    0.0000 C   0  0  0  0  0  0  0  0  0  0  0  0
    7.8237   -1.1475    0.0000 C   0  0  0  0  0  0  0  0  0  0  0  0
    8.5382   -0.7350    0.0000 C   0  0  0  0  0  0  0  0  0  0  0  0
    9.2526   -1.1475    0.0000 C   0  0  0  0  0  0  0  0  0  0  0  0
    9.9671   -0.7350    0.0000 C   0  0  0  0  0  0  0  0  0  0  0  0
   10.6816   -1.1475    0.0000 C   0  0  0  0  0  0  0  0  0  0  0  0
   11.3960   -0.7350    0.0000 C   0  0  0  0  0  0  0  0  0  0  0  0
   12.1105   -1.1475    0.0000 C   0  0  0  0  0  0  0  0  0  0  0  0
   12.8250   -0.7350    0.0000 O   0  0  0  0  0  0  0  0  0  0  0  0
   12.1105   -1.9725    0.0000 O   0  0  0  0  0  0  0  0  0  0  0  0
  1  2  1  0  0  0  0
  2  3  1  0  0  0  0
  3  4  1  0  0  0  0
  4  5  1  0  0  0  0
  5  6  1  0  0  0  0
  6  7  1  0  0  0  0
  7  8  1  0  0  0  0
  8  9  1  0  0  0  0
  9 10  1  0  0  0  0
 10 11  1  0  0  0  0
 11 12  1  0  0  0  0
 12 13  1  0  0  0  0
 13 14  1  0  0  0  0
 14 15  1  0  0  0  0
 15 16  1  0  0  0  0
 16 17  1  0  0  0  0
 17 18  1  0  0  0  0
 18 19  2  0  0  0  0
 18 20  1  0  0  0  0
M  END
> <ChemID>
100028

> <CAS>
57-11-4

> <Original_SMILES>
CCCCCCCCCCCCCCCCCC(O)=O

> <preferred_name>
Octadecanoic acid

> <dsstox_substance_id>
DTXSID8021642

> <dsstox_compound_id>
DTXCID301642

> <qc_level>
DSSTox_Low

> <Canonical_QSARr>
CCCCCCCCCCCCCCCCCC(O)=O

> <InChI_Code_QSARr>
InChI=1S/C18H36O2/c1-2-3-4-5-6-7-8-9-10-11-12-13-14-15-16-17-18(19)20/h2-17H2,1H3,(H,19,20)

> <InChI Key_QSARr>
QIQXTHQIDYTFRH-UHFFFAOYSA-N

> <Salt_Solvent>


> <Salt_Solvent_ID>
0

> <MPID>
100042

> <Tr_1_Tst_0>
1

> <Ready_Biodeg>
1.0

$$$$
Row26
  Mrv171c012251911052D          

  4  3  0  0  0  0            999 V2000
    0.8246   -0.7143    0.0000 C   0  0  0  0  0  0  0  0  0  0  0  0
    1.2371    0.0002    0.0000 O   0  0  0  0  0  0  0  0  0  0  0  0
    1.2371   -1.4287    0.0000 N   0  0  0  0  0  0  0  0  0  0  0  0
   -0.0004   -0.7143    0.0000 N   0  0  0  0  0  0  0  0  0  0  0  0
  1  2  2  0  0  0  0
  1  3  1  0  0  0  0
  1  4  1  0  0  0  0
M  END
> <ChemID>
100029

> <CAS>
57-13-6

> <Original_SMILES>
NC(N)=O

> <preferred_name>
Urea

> <dsstox_substance_id>
DTXSID4021426

> <dsstox_compound_id>
DTXCID901426

> <qc_level>
DSSTox_Low

> <Canonical_QSARr>
NC(N)=O

> <InChI_Code_QSARr>
InChI=1S/CH4N2O/c2-1(3)4/h(H4,2,3,4)

> <InChI Key_QSARr>
XSQUKJJJFZCRTK-UHFFFAOYSA-N

> <Salt_Solvent>


> <Salt_Solvent_ID>
0

> <MPID>
100043

> <Tr_1_Tst_0>
1

> <Ready_Biodeg>
1.0

$$$$
Row27
  Mrv171c012251911052D          

  4  3  0  0  0  0            999 V2000
    1.6159   -0.4372    0.0000 C   0  0  0  0  0  0  0  0  0  0  0  0
    1.2034   -1.1517    0.0000 N   0  0  0  0  0  0  0  0  0  0  0  0
    1.6159   -1.8662    0.0000 N   0  0  0  0  0  0  0  0  0  0  0  0
    0.3784   -1.1517    0.0000 C   0  0  0  0  0  0  0  0  0  0  0  0
  1  2  1  0  0  0  0
  2  3  1  0  0  0  0
  2  4  1  0  0  0  0
M  END
> <ChemID>
100030

> <CAS>
57-14-7

> <Original_SMILES>
CN(C)N

> <preferred_name>
1,1-Dimethylhydrazine

> <dsstox_substance_id>
DTXSID1020516

> <dsstox_compound_id>
DTXCID50516

> <qc_level>
DSSTox_Low

> <Canonical_QSARr>
CN(C)N

> <InChI_Code_QSARr>
InChI=1S/C2H8N2/c1-4(2)3/h3H2,1-2H3

> <InChI Key_QSARr>
RHUYHJGZWVXEHW-UHFFFAOYSA-N

> <Salt_Solvent>


> <Salt_Solvent_ID>
0

> <MPID>
100044

> <Tr_1_Tst_0>
1

> <Ready_Biodeg>
0.0

$$$$
Row28
  Mrv171c012251911052D          

  8  7  0  0  0  0            999 V2000
    1.2425   -1.2375    0.0000 C   0  0  0  0  0  0  0  0  0  0  0  0
    1.2425   -2.0625    0.0000 Cl  0  0  0  0  0  0  0  0  0  0  0  0
    2.0675   -1.2375    0.0000 Cl  0  0  0  0  0  0  0  0  0  0  0  0
    0.4175   -1.2375    0.0000 Cl  0  0  0  0  0  0  0  0  0  0  0  0
    1.2425   -0.4125    0.0000 C   0  0  0  0  0  0  0  0  0  0  0  0
    1.2425    0.4125    0.0000 C   0  0  0  0  0  0  0  0  0  0  0  0
    2.0675   -0.4125    0.0000 C   0  0  0  0  0  0  0  0  0  0  0  0
    0.4175   -0.4125    0.0000 O   0  0  0  0  0  0  0  0  0  0  0  0
  1  2  1  0  0  0  0
  1  3  1  0  0  0  0
  1  4  1  0  0  0  0
  1  5  1  0  0  0  0
  5  6  1  0  0  0  0
  5  7  1  0  0  0  0
  5  8  1  0  0  0  0
M  END
> <ChemID>
100031

> <CAS>
57-15-8

> <Original_SMILES>
CC(C)(O)C(Cl)(Cl)Cl

> <preferred_name>
1,1,1-Trichloro-2-methyl-2-propanol

> <dsstox_substance_id>
DTXSID1041217

> <dsstox_compound_id>
DTXCID9021217

> <qc_level>
DSSTox_Low

> <Canonical_QSARr>
CC(C)(O)C(Cl)(Cl)Cl

> <InChI_Code_QSARr>
InChI=1S/C4H7Cl3O/c1-3(2,8)4(5,6)7/h8H,1-2H3

> <InChI Key_QSARr>
OSASVXMJTNOKOY-UHFFFAOYSA-N

> <Salt_Solvent>


> <Salt_Solvent_ID>
0

> <MPID>
100045

> <Tr_1_Tst_0>
0

> <Ready_Biodeg>
0.0

$$$$
Row29
  Mrv171c012251911052D          

  5  4  0  0  0  0            999 V2000
    2.2164   -0.9681    0.0000 C   0  0  0  0  0  0  0  0  0  0  0  0
    1.3914   -0.9681    0.0000 C   0  0  0  0  0  0  0  0  0  0  0  0
    0.9789   -1.6826    0.0000 O   0  0  0  0  0  0  0  0  0  0  0  0
    0.9789   -0.2536    0.0000 C   0  0  0  0  0  0  0  0  0  0  0  0
    0.1539   -0.2536    0.0000 O   0  0  0  0  0  0  0  0  0  0  0  0
  1  2  1  0  0  0  0
  2  3  1  0  0  0  0
  2  4  1  0  0  0  0
  4  5  1  0  0  0  0
M  END
> <ChemID>
100032

> <CAS>
57-55-6

> <Original_SMILES>
CC(O)CO

> <preferred_name>
1,2-Propylene glycol

> <dsstox_substance_id>
DTXSID0021206

> <dsstox_compound_id>
DTXCID901206

> <qc_level>
DSSTox_High

> <Canonical_QSARr>
CC(O)CO

> <InChI_Code_QSARr>
InChI=1S/C3H8O2/c1-3(5)2-4/h3-5H,2H2,1H3

> <InChI Key_QSARr>
DNIAPMSPPWPWGF-UHFFFAOYSA-N

> <Salt_Solvent>


> <Salt_Solvent_ID>
0

> <MPID>
100046

> <Tr_1_Tst_0>
1

> <Ready_Biodeg>
1.0

$$$$
Row30
  Mrv171c012251911052D          

  5  5  0  0  0  0            999 V2000
    1.1261    0.5433    0.0000 O   0  0  0  0  0  0  0  0  0  0  0  0
    1.1261   -0.2817    0.0000 C   0  0  0  0  0  0  0  0  0  0  0  0
    0.5428   -0.8650    0.0000 O   0  0  0  0  0  0  0  0  0  0  0  0
    1.1261   -1.4484    0.0000 C   0  0  0  0  0  0  0  0  0  0  0  0
    1.7095   -0.8650    0.0000 C   0  0  0  0  0  0  0  0  0  0  0  0
  1  2  2  0  0  0  0
  3  2  1  0  0  0  0
  4  3  1  0  0  0  0
  5  4  1  0  0  0  0
  2  5  1  0  0  0  0
M  END
> <ChemID>
100033

> <CAS>
57-57-8

> <Original_SMILES>
O=C1CCO1

> <preferred_name>
beta-Propiolactone

> <dsstox_substance_id>
DTXSID8021197

> <dsstox_compound_id>
DTXCID801197

> <qc_level>
DSSTox_High

> <Canonical_QSARr>
O=C1CCO1

> <InChI_Code_QSARr>
InChI=1S/C3H4O2/c4-3-1-2-5-3/h1-2H2

> <InChI Key_QSARr>
VEZXCJBBBCKRPI-UHFFFAOYSA-N

> <Salt_Solvent>


> <Salt_Solvent_ID>
0

> <MPID>
100047

> <Tr_1_Tst_0>
1

> <Ready_Biodeg>
1.0

$$$$
Row31
  Mrv171c012251911052D          

 18 20  0  0  0  0            999 V2000
    1.3175   -1.5147    0.0000 C   0  0  0  0  0  0  0  0  0  0  0  0
    0.4609   -1.4936    0.0000 Cl  0  0  0  0  0  0  0  0  0  0  0  0
    1.7956   -2.1870    0.0000 C   0  0  0  0  0  0  0  0  0  0  0  0
    1.3151   -2.9094    0.0000 Cl  0  0  0  0  0  0  0  0  0  0  0  0
    2.4995   -2.0217    0.0000 C   0  0  0  0  0  0  0  0  0  0  0  0
    3.2930   -2.3598    0.0000 C   0  0  0  0  0  0  0  0  0  0  0  0
    3.5861   -3.1936    0.0000 Cl  0  0  0  0  0  0  0  0  0  0  0  0
    3.5077   -1.5369    0.0000 C   0  0  0  0  0  0  0  0  0  0  0  0
    2.8824   -2.3390    0.0000 Cl  0  0  0  0  0  0  0  0  0  0  0  0
    2.8734   -0.6796    0.0000 Cl  0  0  0  0  0  0  0  0  0  0  0  0
    3.3098   -0.7099    0.0000 C   0  0  0  0  0  0  0  0  0  0  0  0
    3.5557    0.1537    0.0000 Cl  0  0  0  0  0  0  0  0  0  0  0  0
    2.5912   -1.1151    0.0000 C   0  0  0  0  0  0  0  0  0  0  0  0
    1.8092   -0.8522    0.0000 C   0  0  0  0  0  0  0  0  0  0  0  0
    4.0200   -1.1296    0.0000 C   0  0  0  0  0  0  0  0  0  0  0  0
    4.7861   -0.7240    0.0000 Cl  0  0  0  0  0  0  0  0  0  0  0  0
    4.0117   -1.9546    0.0000 C   0  0  0  0  0  0  0  0  0  0  0  0
    4.7785   -2.3615    0.0000 Cl  0  0  0  0  0  0  0  0  0  0  0  0
  1  2  1  0  0  0  0
  3  1  1  0  0  0  0
  3  4  1  0  0  0  0
  5  3  1  0  0  0  0
  5  6  1  0  0  0  0
  6  7  1  0  0  0  0
  8  6  1  0  0  0  0
  8  9  1  0  0  0  0
  8 10  1  0  0  0  0
 11  8  1  0  0  0  0
 11 12  1  0  0  0  0
 11 13  1  0  0  0  0
 13  5  1  0  0  0  0
 14 13  1  0  0  0  0
  1 14  1  0  0  0  0
 15 11  1  0  0  0  0
 15 16  1  0  0  0  0
 17 15  2  0  0  0  0
  6 17  1  0  0  0  0
 17 18  1  0  0  0  0
M  END
> <ChemID>
100034

> <CAS>
57-74-9

> <Original_SMILES>
ClC1(Cl)C2(Cl)C3CC(Cl)C(Cl)C3C1(Cl)C(Cl)=C2Cl

> <preferred_name>
Chlordane

> <dsstox_substance_id>
DTXSID7020267

> <dsstox_compound_id>
DTXCID0028117

> <qc_level>
DSSTox_High

> <Canonical_QSARr>
ClC1(Cl)C2(Cl)C3CC(Cl)C(Cl)C3C1(Cl)C(Cl)=C2Cl

> <InChI_Code_QSARr>
InChI=1S/C10H6Cl8/c11-3-1-2-4(5(3)12)9(16)7(14)6(13)8(2,15)10(9,17)18/h2-5H,1H2

> <InChI Key_QSARr>
BIWJNBZANLAXMG-UHFFFAOYSA-N

> <Salt_Solvent>


> <Salt_Solvent_ID>
0

> <MPID>
100048|101117

> <Tr_1_Tst_0>
1

> <Ready_Biodeg>
0.0

$$$$
Row32
  Mrv171c012251911052D          

 11 11  0  0  0  0            999 V2000
    2.8003   -0.5297    0.0000 O   0  0  0  0  0  0  0  0  0  0  0  0
    2.0858   -0.9422    0.0000 C   0  0  0  0  0  0  0  0  0  0  0  0
    1.3713   -0.5297    0.0000 C   0  0  0  0  0  0  0  0  0  0  0  0
    1.3713    0.2953    0.0000 Cl  0  0  0  0  0  0  0  0  0  0  0  0
    0.6569   -0.9422    0.0000 C   0  0  0  0  0  0  0  0  0  0  0  0
    0.6569   -1.7672    0.0000 C   0  0  0  0  0  0  0  0  0  0  0  0
   -0.0576   -2.1797    0.0000 Cl  0  0  0  0  0  0  0  0  0  0  0  0
    1.3713   -2.1797    0.0000 C   0  0  0  0  0  0  0  0  0  0  0  0
    1.3713   -3.0047    0.0000 Cl  0  0  0  0  0  0  0  0  0  0  0  0
    2.0858   -1.7672    0.0000 C   0  0  0  0  0  0  0  0  0  0  0  0
    2.8003   -2.1797    0.0000 Cl  0  0  0  0  0  0  0  0  0  0  0  0
  1  2  1  0  0  0  0
  3  2  1  0  0  0  0
  3  4  1  0  0  0  0
  5  3  2  0  0  0  0
  6  5  1  0  0  0  0
  6  7  1  0  0  0  0
  8  6  2  0  0  0  0
  8  9  1  0  0  0  0
 10  8  1  0  0  0  0
  2 10  2  0  0  0  0
 10 11  1  0  0  0  0
M  END
> <ChemID>
100035

> <CAS>
58-90-2

> <Original_SMILES>
Oc1c(Cl)cc(Cl)c(Cl)c1Cl

> <preferred_name>
2,3,4,6-Tetrachlorophenol

> <dsstox_substance_id>
DTXSID9021716

> <dsstox_compound_id>
DTXCID201716

> <qc_level>
DSSTox_Low

> <Canonical_QSARr>
OC1C(Cl)=CC(Cl)=C(Cl)C=1Cl

> <InChI_Code_QSARr>
InChI=1S/C6H2Cl4O/c7-2-1-3(8)6(11)5(10)4(2)9/h1,11H

> <InChI Key_QSARr>
VGVRPFIJEJYOFN-UHFFFAOYSA-N

> <Salt_Solvent>


> <Salt_Solvent_ID>
0

> <MPID>
100049

> <Tr_1_Tst_0>
0

> <Ready_Biodeg>
0.0

$$$$
Row33
  Mrv171c012251911052D          

  9  9  0  0  0  0            999 V2000
    1.4296   -2.6583    0.0000 O   0  0  0  0  0  0  0  0  0  0  0  0
    1.4296   -1.8333    0.0000 C   0  0  0  0  0  0  0  0  0  0  0  0
    2.1441   -1.4208    0.0000 C   0  0  0  0  0  0  0  0  0  0  0  0
    2.1441   -0.5958    0.0000 C   0  0  0  0  0  0  0  0  0  0  0  0
    1.4296   -0.1833    0.0000 C   0  0  0  0  0  0  0  0  0  0  0  0
    1.4296    0.6417    0.0000 Cl  0  0  0  0  0  0  0  0  0  0  0  0
    0.7151   -0.5958    0.0000 C   0  0  0  0  0  0  0  0  0  0  0  0
    0.0007   -0.1833    0.0000 C   0  0  0  0  0  0  0  0  0  0  0  0
    0.7151   -1.4208    0.0000 C   0  0  0  0  0  0  0  0  0  0  0  0
  1  2  1  0  0  0  0
  3  2  1  0  0  0  0
  4  3  2  0  0  0  0
  5  4  1  0  0  0  0
  5  6  1  0  0  0  0
  7  5  2  0  0  0  0
  7  8  1  0  0  0  0
  9  7  1  0  0  0  0
  2  9  2  0  0  0  0
M  END
> <ChemID>
100036

> <CAS>
59-50-7

> <Original_SMILES>
Cc1cc(O)ccc1Cl

> <preferred_name>
4-Chloro-3-methylphenol

> <dsstox_substance_id>
DTXSID4021717

> <dsstox_compound_id>
DTXCID601717

> <qc_level>
DSSTox_Low

> <Canonical_QSARr>
CC1C=C(O)C=CC=1Cl

> <InChI_Code_QSARr>
InChI=1S/C7H7ClO/c1-5-4-6(9)2-3-7(5)8/h2-4,9H,1H3

> <InChI Key_QSARr>
CFKMVGJGLGKFKI-UHFFFAOYSA-N

> <Salt_Solvent>


> <Salt_Solvent_ID>
0

> <MPID>
100050

> <Tr_1_Tst_0>
1

> <Ready_Biodeg>
1.0

$$$$
Row34
  Mrv171c012251911052D          

  9  9  0  0  0  0            999 V2000
    2.1337    0.7064    0.0000 O   0  0  0  0  0  0  0  0  0  0  0  0
    1.4193    0.2939    0.0000 C   0  0  0  0  0  0  0  0  0  0  0  0
    1.4193   -0.5311    0.0000 C   0  0  0  0  0  0  0  0  0  0  0  0
    0.7048   -0.9436    0.0000 C   0  0  0  0  0  0  0  0  0  0  0  0
    0.7048   -1.7686    0.0000 N   0  0  0  0  0  0  0  0  0  0  0  0
    1.4193   -2.1811    0.0000 C   0  0  0  0  0  0  0  0  0  0  0  0
    2.1337   -1.7686    0.0000 C   0  0  0  0  0  0  0  0  0  0  0  0
    2.1337   -0.9436    0.0000 C   0  0  0  0  0  0  0  0  0  0  0  0
    0.7048    0.7064    0.0000 O   0  0  0  0  0  0  0  0  0  0  0  0
  1  2  1  0  0  0  0
  2  3  1  0  0  0  0
  4  3  1  0  0  0  0
  5  4  2  0  0  0  0
  6  5  1  0  0  0  0
  7  6  2  0  0  0  0
  8  7  1  0  0  0  0
  3  8  2  0  0  0  0
  2  9  2  0  0  0  0
M  END
> <ChemID>
100037

> <CAS>
59-67-6

> <Original_SMILES>
OC(=O)c1ccc[n]c1

> <preferred_name>
Nicotinic acid

> <dsstox_substance_id>
DTXSID1020932

> <dsstox_compound_id>
DTXCID10932

> <qc_level>
DSSTox_High

> <Canonical_QSARr>
OC(=O)C1C=NC=CC=1

> <InChI_Code_QSARr>
InChI=1S/C6H5NO2/c8-6(9)5-2-1-3-7-4-5/h1-4H,(H,8,9)

> <InChI Key_QSARr>
PVNIIMVLHYAWGP-UHFFFAOYSA-N

> <Salt_Solvent>


> <Salt_Solvent_ID>
0

> <MPID>
100051

> <Tr_1_Tst_0>
1

> <Ready_Biodeg>
1.0

$$$$
Row35
  Mrv171c012251911052D          

 20 19  0  0  0  0            999 V2000
    1.7335   -2.3297    0.0000 N   0  0  0  0  0  0  0  0  0  0  0  0
    1.4634   -3.1092    0.0000 C   0  0  0  0  0  0  0  0  0  0  0  0
    2.0035   -3.7328    0.0000 C   0  0  0  0  0  0  0  0  0  0  0  0
    2.8137   -3.5769    0.0000 O   0  0  0  0  0  0  0  0  0  0  0  0
    1.7335   -4.5124    0.0000 O   0  0  0  0  0  0  0  0  0  0  0  0
    1.1934   -1.7060    0.0000 C   0  0  0  0  0  0  0  0  0  0  0  0
    0.3833   -1.8619    0.0000 C   0  0  0  0  0  0  0  0  0  0  0  0
    0.1132   -2.6415    0.0000 O   0  0  0  0  0  0  0  0  0  0  0  0
   -0.1568   -1.2383    0.0000 O   0  0  0  0  0  0  0  0  0  0  0  0
    2.5436   -2.1737    0.0000 C   0  0  0  0  0  0  0  0  0  0  0  0
    2.8137   -1.3942    0.0000 C   0  0  0  0  0  0  0  0  0  0  0  0
    3.6238   -1.2383    0.0000 N   0  0  0  0  0  0  0  0  0  0  0  0
    3.8938   -0.4587    0.0000 C   0  0  0  0  0  0  0  0  0  0  0  0
    3.3537    0.1649    0.0000 C   0  0  0  0  0  0  0  0  0  0  0  0
    3.6238    0.9445    0.0000 O   0  0  0  0  0  0  0  0  0  0  0  0
    2.5436    0.0090    0.0000 O   0  0  0  0  0  0  0  0  0  0  0  0
    4.1639   -1.8619    0.0000 C   0  0  0  0  0  0  0  0  0  0  0  0
    4.9740   -1.7060    0.0000 C   0  0  0  0  0  0  0  0  0  0  0  0
    5.2441   -0.9265    0.0000 O   0  0  0  0  0  0  0  0  0  0  0  0
    5.5141   -2.3297    0.0000 O   0  0  0  0  0  0  0  0  0  0  0  0
  1  2  1  0  0  0  0
  2  3  1  0  0  0  0
  3  4  2  0  0  0  0
  3  5  1  0  0  0  0
  1  6  1  0  0  0  0
  6  7  1  0  0  0  0
  7  8  2  0  0  0  0
  7  9  1  0  0  0  0
  1 10  1  0  0  0  0
 10 11  1  0  0  0  0
 11 12  1  0  0  0  0
 12 13  1  0  0  0  0
 13 14  1  0  0  0  0
 14 15  2  0  0  0  0
 14 16  1  0  0  0  0
 12 17  1  0  0  0  0
 17 18  1  0  0  0  0
 18 19  2  0  0  0  0
 18 20  1  0  0  0  0
M  END
> <ChemID>
100038

> <CAS>
60-00-4

> <Original_SMILES>
OC(=O)CN(CC(O)=O)CCN(CC(O)=O)CC(O)=O

> <preferred_name>
Ethylenediaminetetraacetic acid

> <dsstox_substance_id>
DTXSID6022977

> <dsstox_compound_id>
DTXCID902977

> <qc_level>
DSSTox_High

> <Canonical_QSARr>
OC(=O)CN(CC(O)=O)CCN(CC(O)=O)CC(O)=O

> <InChI_Code_QSARr>
InChI=1S/C10H16N2O8/c13-7(14)3-11(4-8(15)16)1-2-12(5-9(17)18)6-10(19)20/h1-6H2,(H,13,14)(H,15,16)(H,17,18)(H,19,20)

> <InChI Key_QSARr>
KCXVZYZYPLLWCC-UHFFFAOYSA-N

> <Salt_Solvent>


> <Salt_Solvent_ID>
0

> <MPID>
100052

> <Tr_1_Tst_0>
1

> <Ready_Biodeg>
0.0

$$$$
Row36
  Mrv171c012251911052D          

 15 16  0  0  0  0            999 V2000
    1.4289   -1.6500    0.0000 N   0  0  0  0  0  0  0  0  0  0  0  0
    1.4289   -2.4750    0.0000 C   0  0  0  0  0  0  0  0  0  0  0  0
    2.1434   -2.8875    0.0000 C   0  0  0  0  0  0  0  0  0  0  0  0
    2.1434   -3.7125    0.0000 C   0  0  0  0  0  0  0  0  0  0  0  0
    1.4289   -4.1250    0.0000 C   0  0  0  0  0  0  0  0  0  0  0  0
    0.7145   -3.7125    0.0000 C   0  0  0  0  0  0  0  0  0  0  0  0
    0.7145   -2.8875    0.0000 C   0  0  0  0  0  0  0  0  0  0  0  0
    1.4289   -4.9500    0.0000 N   0  0  0  0  0  0  0  0  0  0  0  0
    2.1434   -5.3625    0.0000 N   0  0  0  0  0  0  0  0  0  0  0  0
    2.1434   -6.1875    0.0000 C   0  0  0  0  0  0  0  0  0  0  0  0
    2.8579   -6.6000    0.0000 C   0  0  0  0  0  0  0  0  0  0  0  0
    2.8579   -7.4250    0.0000 C   0  0  0  0  0  0  0  0  0  0  0  0
    2.1434   -7.8375    0.0000 C   0  0  0  0  0  0  0  0  0  0  0  0
    1.4289   -7.4250    0.0000 C   0  0  0  0  0  0  0  0  0  0  0  0
    1.4289   -6.6000    0.0000 C   0  0  0  0  0  0  0  0  0  0  0  0
  1  2  1  0  0  0  0
  2  3  1  0  0  0  0
  3  4  2  0  0  0  0
  4  5  1  0  0  0  0
  5  6  2  0  0  0  0
  6  7  1  0  0  0  0
  2  7  2  0  0  0  0
  8  5  1  4  0  0  0
  8  9  2  0  0  0  0
  9 10  1  0  0  0  0
 10 11  1  0  0  0  0
 11 12  2  0  0  0  0
 12 13  1  0  0  0  0
 13 14  2  0  0  0  0
 14 15  1  0  0  0  0
 10 15  2  0  0  0  0
M  END
> <ChemID>
100039

> <CAS>
60-09-3

> <Original_SMILES>
Nc1ccc(cc1)/N=N/c1ccccc1

> <preferred_name>
4-Aminoazobenzene

> <dsstox_substance_id>
DTXSID6024460

> <dsstox_compound_id>
DTXCID004460

> <qc_level>
DSSTox_Low

> <Canonical_QSARr>
NC1C=CC(=CC=1)N=NC1C=CC=CC=1

> <InChI_Code_QSARr>
InChI=1S/C12H11N3/c13-10-6-8-12(9-7-10)15-14-11-4-2-1-3-5-11/h1-9H,13H2

> <InChI Key_QSARr>
QPQKUYVSJWQSDY-UHFFFAOYSA-N

> <Salt_Solvent>


> <Salt_Solvent_ID>
0

> <MPID>
100053

> <Tr_1_Tst_0>
0

> <Ready_Biodeg>
0.0

$$$$
Row37
  Mrv171c012251911052D          

  9  9  0  0  0  0            999 V2000
    0.9052   -2.0546    0.0000 C   0  0  0  0  0  0  0  0  0  0  0  0
    0.9052   -1.2296    0.0000 C   0  0  0  0  0  0  0  0  0  0  0  0
    1.6197   -0.8171    0.0000 C   0  0  0  0  0  0  0  0  0  0  0  0
    1.6197    0.0079    0.0000 O   0  0  0  0  0  0  0  0  0  0  0  0
    0.1908   -2.4671    0.0000 C   0  0  0  0  0  0  0  0  0  0  0  0
    0.1908   -3.2921    0.0000 C   0  0  0  0  0  0  0  0  0  0  0  0
    0.9052   -3.7046    0.0000 C   0  0  0  0  0  0  0  0  0  0  0  0
    1.6197   -3.2921    0.0000 C   0  0  0  0  0  0  0  0  0  0  0  0
    1.6197   -2.4671    0.0000 C   0  0  0  0  0  0  0  0  0  0  0  0
  1  2  1  0  0  0  0
  2  3  1  0  0  0  0
  3  4  1  0  0  0  0
  5  1  1  0  0  0  0
  6  5  2  0  0  0  0
  7  6  1  0  0  0  0
  8  7  2  0  0  0  0
  9  8  1  0  0  0  0
  1  9  2  0  0  0  0
M  END
> <ChemID>
100040

> <CAS>
60-12-8

> <Original_SMILES>
OCCc1ccccc1

> <preferred_name>
2-Phenylethanol

> <dsstox_substance_id>
DTXSID9026342

> <dsstox_compound_id>
DTXCID206342

> <qc_level>
DSSTox_Low

> <Canonical_QSARr>
OCCC1C=CC=CC=1

> <InChI_Code_QSARr>
InChI=1S/C8H10O/c9-7-6-8-4-2-1-3-5-8/h1-5,9H,6-7H2

> <InChI Key_QSARr>
WRMNZCZEMHIOCP-UHFFFAOYSA-N

> <Salt_Solvent>


> <Salt_Solvent_ID>
0

> <MPID>
100054

> <Tr_1_Tst_0>
1

> <Ready_Biodeg>
1.0

$$$$
Row38
  Mrv171c012251911052D          

  5  4  0  0  0  0            999 V2000
    1.3473   -0.3899    0.0000 O   0  0  0  0  0  0  0  0  0  0  0  0
    2.1723   -0.3899    0.0000 C   0  0  0  0  0  0  0  0  0  0  0  0
    2.5848   -1.1044    0.0000 C   0  0  0  0  0  0  0  0  0  0  0  0
    0.9348    0.3245    0.0000 C   0  0  0  0  0  0  0  0  0  0  0  0
    0.1098    0.3245    0.0000 C   0  0  0  0  0  0  0  0  0  0  0  0
  1  2  1  0  0  0  0
  2  3  1  0  0  0  0
  1  4  1  0  0  0  0
  4  5  1  0  0  0  0
M  END
> <ChemID>
100041

> <CAS>
60-29-7

> <Original_SMILES>
CCOCC

> <preferred_name>
Diethyl ether

> <dsstox_substance_id>
DTXSID3021720

> <dsstox_compound_id>
DTXCID101720

> <qc_level>
DSSTox_Low

> <Canonical_QSARr>
CCOCC

> <InChI_Code_QSARr>
InChI=1S/C4H10O/c1-3-5-4-2/h3-4H2,1-2H3

> <InChI Key_QSARr>
RTZKZFJDLAIYFH-UHFFFAOYSA-N

> <Salt_Solvent>


> <Salt_Solvent_ID>
0

> <MPID>
100055

> <Tr_1_Tst_0>
1

> <Ready_Biodeg>
0.0

$$$$
Row39
  Mrv171c012251911052D          

 20 19  0  0  0  0            999 V2000
   -2.0033    6.2684    0.0000 C   0  0  0  0  0  0  0  0  0  0  0  0
   -1.2888    5.8559    0.0000 C   0  0  0  0  0  0  0  0  0  0  0  0
   -1.2888    5.0309    0.0000 C   0  0  0  0  0  0  0  0  0  0  0  0
   -0.5743    4.6184    0.0000 C   0  0  0  0  0  0  0  0  0  0  0  0
   -0.5743    3.7934    0.0000 C   0  0  0  0  0  0  0  0  0  0  0  0
    0.1401    3.3809    0.0000 C   0  0  0  0  0  0  0  0  0  0  0  0
    0.1401    2.5559    0.0000 C   0  0  0  0  0  0  0  0  0  0  0  0
    0.8546    2.1434    0.0000 C   0  0  0  0  0  0  0  0  0  0  0  0
    1.5691    2.5559    0.0000 C   0  0  0  0  0  0  0  0  0  0  0  0
    2.2836    2.1434    0.0000 C   0  0  0  0  0  0  0  0  0  0  0  0
    2.9980    2.5559    0.0000 C   0  0  0  0  0  0  0  0  0  0  0  0
    3.7125    2.1434    0.0000 C   0  0  0  0  0  0  0  0  0  0  0  0
    4.4270    2.5559    0.0000 C   0  0  0  0  0  0  0  0  0  0  0  0
    5.1414    2.1434    0.0000 C   0  0  0  0  0  0  0  0  0  0  0  0
    5.8559    2.5559    0.0000 C   0  0  0  0  0  0  0  0  0  0  0  0
    6.5704    2.1434    0.0000 C   0  0  0  0  0  0  0  0  0  0  0  0
    7.2849    2.5559    0.0000 C   0  0  0  0  0  0  0  0  0  0  0  0
    7.9993    2.1434    0.0000 C   0  0  0  0  0  0  0  0  0  0  0  0
    8.7138    2.5559    0.0000 O   0  0  0  0  0  0  0  0  0  0  0  0
    7.9993    1.3184    0.0000 O   0  0  0  0  0  0  0  0  0  0  0  0
  1  2  1  0  0  0  0
  2  3  1  0  0  0  0
  3  4  1  0  0  0  0
  4  5  1  0  0  0  0
  6  5  1  4  0  0  0
  6  7  2  0  0  0  0
  7  8  1  0  0  0  0
  9  8  1  4  0  0  0
  9 10  2  0  0  0  0
 10 11  1  0  0  0  0
 11 12  1  0  0  0  0
 12 13  1  0  0  0  0
 13 14  1  0  0  0  0
 14 15  1  0  0  0  0
 15 16  1  0  0  0  0
 16 17  1  0  0  0  0
 17 18  1  0  0  0  0
 18 19  1  0  0  0  0
 18 20  2  0  0  0  0
M  END
> <ChemID>
100042

> <CAS>
60-33-3

> <Original_SMILES>
CCCCC/C=C\C/C=C\CCCCCCCC(O)=O

> <preferred_name>
Linoleic acid

> <dsstox_substance_id>
DTXSID2025505

> <dsstox_compound_id>
DTXCID505505

> <qc_level>
DSSTox_High

> <Canonical_QSARr>
CCCCCC=CCC=CCCCCCCCC(O)=O

> <InChI_Code_QSARr>
InChI=1S/C18H32O2/c1-2-3-4-5-6-7-8-9-10-11-12-13-14-15-16-17-18(19)20/h6-7,9-10H,2-5,8,11-17H2,1H3,(H,19,20)

> <InChI Key_QSARr>
OYHQOLUKZRVURQ-UHFFFAOYSA-N

> <Salt_Solvent>


> <Salt_Solvent_ID>
0

> <MPID>
100056

> <Tr_1_Tst_0>
1

> <Ready_Biodeg>
1.0

$$$$
Row40
  Mrv171c012251911052D          

  3  2  0  0  0  0            999 V2000
   -0.0002   -0.1377    0.0000 C   0  0  0  0  0  0  0  0  0  0  0  0
    0.7143   -0.5502    0.0000 N   0  0  0  0  0  0  0  0  0  0  0  0
    1.4287   -0.1377    0.0000 N   0  0  0  0  0  0  0  0  0  0  0  0
  1  2  1  0  0  0  0
  2  3  1  0  0  0  0
M  END
> <ChemID>
100043

> <CAS>
60-34-4

> <Original_SMILES>
CNN

> <preferred_name>
Methylhydrazine

> <dsstox_substance_id>
DTXSID4020874

> <dsstox_compound_id>
DTXCID40874

> <qc_level>
DSSTox_Low

> <Canonical_QSARr>
CNN

> <InChI_Code_QSARr>
InChI=1S/CH6N2/c1-3-2/h3H,2H2,1H3

> <InChI Key_QSARr>
HDZGCSFEDULWCS-UHFFFAOYSA-N

> <Salt_Solvent>


> <Salt_Solvent_ID>
0

> <MPID>
100057

> <Tr_1_Tst_0>
0

> <Ready_Biodeg>
0.0

$$$$
Row41
  Mrv171c012251911052D          

  4  3  0  0  0  0            999 V2000
    1.2371    0.0002    0.0000 C   0  0  0  0  0  0  0  0  0  0  0  0
    0.8246   -0.7143    0.0000 C   0  0  0  0  0  0  0  0  0  0  0  0
    1.2371   -1.4287    0.0000 N   0  0  0  0  0  0  0  0  0  0  0  0
   -0.0004   -0.7143    0.0000 O   0  0  0  0  0  0  0  0  0  0  0  0
  1  2  1  0  0  0  0
  2  3  1  0  0  0  0
  2  4  2  0  0  0  0
M  END
> <ChemID>
100044

> <CAS>
60-35-5

> <Original_SMILES>
CC(N)=O

> <preferred_name>
Acetamide

> <dsstox_substance_id>
DTXSID7020005

> <dsstox_compound_id>
DTXCID505

> <qc_level>
DSSTox_High

> <Canonical_QSARr>
CC(N)=O

> <InChI_Code_QSARr>
InChI=1S/C2H5NO/c1-2(3)4/h1H3,(H2,3,4)

> <InChI Key_QSARr>
DLFVBJFMPXGRIB-UHFFFAOYSA-N

> <Salt_Solvent>


> <Salt_Solvent_ID>
0

> <MPID>
100058

> <Tr_1_Tst_0>
1

> <Ready_Biodeg>
1.0

$$$$
Row42
  Mrv171c012251911052D          

 12 11  0  0  0  0            999 V2000
    0.9482   -3.3580    0.0000 S   0  0  0  0  0  0  0  0  0  0  0  0
    1.6627   -2.9455    0.0000 P   0  0  0  0  0  0  0  0  0  0  0  0
    2.0752   -3.6600    0.0000 O   0  0  0  0  0  0  0  0  0  0  0  0
    1.6627   -4.3744    0.0000 C   0  0  0  0  0  0  0  0  0  0  0  0
    2.3771   -2.5330    0.0000 O   0  0  0  0  0  0  0  0  0  0  0  0
    3.0916   -2.9455    0.0000 C   0  0  0  0  0  0  0  0  0  0  0  0
    1.2502   -2.2310    0.0000 S   0  0  0  0  0  0  0  0  0  0  0  0
    1.6627   -1.5165    0.0000 C   0  0  0  0  0  0  0  0  0  0  0  0
    1.2502   -0.8021    0.0000 C   0  0  0  0  0  0  0  0  0  0  0  0
    1.6627   -0.0876    0.0000 N   0  0  0  0  0  0  0  0  0  0  0  0
    1.2502    0.6269    0.0000 C   0  0  0  0  0  0  0  0  0  0  0  0
    0.4252   -0.8021    0.0000 O   0  0  0  0  0  0  0  0  0  0  0  0
  1  2  2  0  0  0  0
  2  3  1  0  0  0  0
  3  4  1  0  0  0  0
  2  5  1  0  0  0  0
  5  6  1  0  0  0  0
  2  7  1  0  0  0  0
  7  8  1  0  0  0  0
  8  9  1  0  0  0  0
  9 10  1  0  0  0  0
 10 11  1  0  0  0  0
  9 12  2  0  0  0  0
M  END
> <ChemID>
100045

> <CAS>
60-51-5

> <Original_SMILES>
CNC(=O)CSP(=S)(OC)OC

> <preferred_name>
Dimethoate

> <dsstox_substance_id>
DTXSID7020479

> <dsstox_compound_id>
DTXCID50479

> <qc_level>
DSSTox_Low

> <Canonical_QSARr>
CNC(=O)CSP(=S)(OC)OC

> <InChI_Code_QSARr>
InChI=1S/C5H12NO3PS2/c1-6-5(7)4-12-10(11,8-2)9-3/h4H2,1-3H3,(H,6,7)

> <InChI Key_QSARr>
MCWXGJITAZMZEV-UHFFFAOYSA-N

> <Salt_Solvent>


> <Salt_Solvent_ID>
0

> <MPID>
100059

> <Tr_1_Tst_0>
1

> <Ready_Biodeg>
0.0

$$$$
Row43
  Mrv171c012251911052D          

 19 23  0  0  0  0            999 V2000
    0.8791   -2.2674    0.0000 C   0  0  0  0  0  0  0  0  0  0  0  0
    1.5936   -2.6799    0.0000 C   0  0  0  0  0  0  0  0  0  0  0  0
    1.7998   -1.8549    0.0000 C   0  0  0  0  0  0  0  0  0  0  0  0
    1.5936   -1.0299    0.0000 C   0  0  0  0  0  0  0  0  0  0  0  0
    2.1954   -1.4726    0.0000 C   0  0  0  0  0  0  0  0  0  0  0  0
    3.0225   -1.0299    0.0000 C   0  0  0  0  0  0  0  0  0  0  0  0
    3.2138   -0.1477    0.0000 Cl  0  0  0  0  0  0  0  0  0  0  0  0
    3.2288   -1.8549    0.0000 C   0  0  0  0  0  0  0  0  0  0  0  0
    2.5237   -0.9691    0.0000 Cl  0  0  0  0  0  0  0  0  0  0  0  0
    2.5404   -2.7583    0.0000 Cl  0  0  0  0  0  0  0  0  0  0  0  0
    3.0225   -2.6799    0.0000 C   0  0  0  0  0  0  0  0  0  0  0  0
    3.2450   -3.5556    0.0000 Cl  0  0  0  0  0  0  0  0  0  0  0  0
    3.7370   -2.2674    0.0000 C   0  0  0  0  0  0  0  0  0  0  0  0
    4.4962   -2.6868    0.0000 Cl  0  0  0  0  0  0  0  0  0  0  0  0
    3.7370   -1.4424    0.0000 C   0  0  0  0  0  0  0  0  0  0  0  0
    4.4973   -1.0254    0.0000 Cl  0  0  0  0  0  0  0  0  0  0  0  0
    2.3081   -2.2674    0.0000 C   0  0  0  0  0  0  0  0  0  0  0  0
    0.8791   -1.4424    0.0000 C   0  0  0  0  0  0  0  0  0  0  0  0
    0.1646   -1.8549    0.0000 O   0  0  0  0  0  0  0  0  0  0  0  0
  2  1  1  0  0  0  0
  2  3  1  0  0  0  0
  3  4  1  0  0  0  0
  4  5  1  0  0  0  0
  6  5  1  0  0  0  0
  6  7  1  0  0  0  0
  6  8  1  0  0  0  0
  8  9  1  0  0  0  0
  8 10  1  0  0  0  0
  8 11  1  0  0  0  0
 11 12  1  0  0  0  0
 11 13  1  0  0  0  0
 13 14  1  0  0  0  0
 13 15  2  0  0  0  0
 15  6  1  0  0  0  0
 15 16  1  0  0  0  0
 17 11  1  0  0  0  0
  5 17  1  0  0  0  0
 17  2  1  0  0  0  0
 18  4  1  0  0  0  0
 18  1  1  0  0  0  0
 19 18  1  0  0  0  0
  1 19  1  0  0  0  0
M  END
> <ChemID>
100046

> <CAS>
60-57-1|72-20-8

> <Original_SMILES>
ClC1(Cl)[C@@]2(Cl)[C@@H]3[C@@H]4C[C@@H]([C@H]5O[C@H]54)[C@@H]3[C@]1(Cl)C(Cl)=C2Cl

> <preferred_name>
Dieldrin|Endrin

> <dsstox_substance_id>
DTXSID9020453|DTXSID6020561

> <dsstox_compound_id>
DTXCID30196607|DTXCID90196608

> <qc_level>
DSSTox_High

> <Canonical_QSARr>
ClC1(Cl)C2(Cl)C3C4CC(C5OC54)C3C1(Cl)C(Cl)=C2Cl

> <InChI_Code_QSARr>
InChI=1S/C12H8Cl6O/c13-8-9(14)11(16)5-3-1-2(6-7(3)19-6)4(5)10(8,15)12(11,17)18/h2-7H,1H2

> <InChI Key_QSARr>
DFBKLUNHFCTMDC-UHFFFAOYSA-N

> <Salt_Solvent>


> <Salt_Solvent_ID>
0

> <MPID>
100060|100094

> <Tr_1_Tst_0>
1

> <Ready_Biodeg>
0.0

$$$$
Row44
  Mrv171c012251911052D          

  6  6  0  0  0  0            999 V2000
    1.2717   -0.2189    0.0000 C   0  0  0  0  0  0  0  0  0  0  0  0
    1.2717    0.6061    0.0000 N   0  0  0  0  0  0  0  0  0  0  0  0
    0.6043   -0.7038    0.0000 N   0  0  0  0  0  0  0  0  0  0  0  0
    0.8592   -1.4885    0.0000 N   0  0  0  0  0  0  0  0  0  0  0  0
    1.6842   -1.4885    0.0000 C   0  0  0  0  0  0  0  0  0  0  0  0
    1.9392   -0.7038    0.0000 N   0  0  0  0  0  0  0  0  0  0  0  0
  1  2  1  0  0  0  0
  3  1  2  0  0  0  0
  4  3  1  0  0  0  0
  5  4  1  0  0  0  0
  6  5  2  0  0  0  0
  1  6  1  0  0  0  0
M  END
> <ChemID>
100047

> <CAS>
61-82-5

> <Original_SMILES>
Nc1[n]c[nH][n]1

> <preferred_name>
Amitrole

> <dsstox_substance_id>
DTXSID0020076

> <dsstox_compound_id>
DTXCID9076

> <qc_level>
DSSTox_Low

> <Canonical_QSARr>
NC1N=CNN=1

> <InChI_Code_QSARr>
InChI=1S/C2H4N4/c3-2-4-1-5-6-2/h1H,(H3,3,4,5,6)

> <InChI Key_QSARr>
KLSJWNVTNUYHDU-UHFFFAOYSA-N

> <Salt_Solvent>


> <Salt_Solvent_ID>
0

> <MPID>
100061

> <Tr_1_Tst_0>
0

> <Ready_Biodeg>
0.0

$$$$
Row45
  Mrv171c012251911052D          

 12 12  0  0  0  0            999 V2000
    1.3497   -2.7767    0.0000 O   0  0  0  0  0  0  0  0  0  0  0  0
    2.0642   -2.3642    0.0000 C   0  0  0  0  0  0  0  0  0  0  0  0
    2.0642   -1.5392    0.0000 C   0  0  0  0  0  0  0  0  0  0  0  0
    2.7787   -1.1267    0.0000 C   0  0  0  0  0  0  0  0  0  0  0  0
    2.7787   -0.3017    0.0000 C   0  0  0  0  0  0  0  0  0  0  0  0
    2.0642    0.1108    0.0000 C   0  0  0  0  0  0  0  0  0  0  0  0
    2.0642    0.9358    0.0000 N   0  3  0  0  0  0  0  0  0  0  0  0
    1.3497    1.3483    0.0000 O   0  5  0  0  0  0  0  0  0  0  0  0
    2.7787    1.3483    0.0000 O   0  0  0  0  0  0  0  0  0  0  0  0
    1.3497   -0.3017    0.0000 C   0  0  0  0  0  0  0  0  0  0  0  0
    1.3497   -1.1267    0.0000 C   0  0  0  0  0  0  0  0  0  0  0  0
    2.7787   -2.7767    0.0000 O   0  0  0  0  0  0  0  0  0  0  0  0
  1  2  1  0  0  0  0
  2  3  1  0  0  0  0
  4  3  1  0  0  0  0
  5  4  2  0  0  0  0
  6  5  1  0  0  0  0
  6  7  1  0  0  0  0
  7  8  1  0  0  0  0
  7  9  2  0  0  0  0
 10  6  2  0  0  0  0
 11 10  1  0  0  0  0
  3 11  2  0  0  0  0
  2 12  2  0  0  0  0
M  CHG  2   7   1   8  -1
M  END
> <ChemID>
100048

> <CAS>
62-23-7

> <Original_SMILES>
[O-][N+](=O)c1ccc(cc1)C(O)=O

> <preferred_name>
4-Nitrobenzoic acid

> <dsstox_substance_id>
DTXSID3020966

> <dsstox_compound_id>
DTXCID90966

> <qc_level>
DSSTox_Low

> <Canonical_QSARr>
[O-][N+](=O)C1C=CC(=CC=1)C(O)=O

> <InChI_Code_QSARr>
InChI=1S/C7H5NO4/c9-7(10)5-1-3-6(4-2-5)8(11)12/h1-4H,(H,9,10)

> <InChI Key_QSARr>
OTLNPYWUJOZPPA-UHFFFAOYSA-N

> <Salt_Solvent>


> <Salt_Solvent_ID>
0

> <MPID>
100062

> <Tr_1_Tst_0>
1

> <Ready_Biodeg>
1.0

$$$$
Row46
  Mrv171c012251911052D          

 13 13  0  0  0  0            999 V2000
    2.4199   -3.6189    0.0000 C   0  0  0  0  0  0  0  0  0  0  0  0
    2.4199   -2.7939    0.0000 C   0  0  0  0  0  0  0  0  0  0  0  0
    3.1344   -2.3814    0.0000 N   0  0  0  0  0  0  0  0  0  0  0  0
    3.1344   -1.5564    0.0000 C   0  0  0  0  0  0  0  0  0  0  0  0
    3.8488   -1.1439    0.0000 C   0  0  0  0  0  0  0  0  0  0  0  0
    3.8488   -0.3189    0.0000 C   0  0  0  0  0  0  0  0  0  0  0  0
    3.1344    0.0936    0.0000 C   0  0  0  0  0  0  0  0  0  0  0  0
    3.1344    0.9186    0.0000 O   0  0  0  0  0  0  0  0  0  0  0  0
    3.8488    1.3311    0.0000 C   0  0  0  0  0  0  0  0  0  0  0  0
    3.8488    2.1561    0.0000 C   0  0  0  0  0  0  0  0  0  0  0  0
    2.4199   -0.3189    0.0000 C   0  0  0  0  0  0  0  0  0  0  0  0
    2.4199   -1.1439    0.0000 C   0  0  0  0  0  0  0  0  0  0  0  0
    1.7054   -2.3814    0.0000 O   0  0  0  0  0  0  0  0  0  0  0  0
  1  2  1  0  0  0  0
  2  3  1  0  0  0  0
  3  4  1  0  0  0  0
  5  4  1  0  0  0  0
  6  5  2  0  0  0  0
  7  6  1  0  0  0  0
  7  8  1  0  0  0  0
  8  9  1  0  0  0  0
  9 10  1  0  0  0  0
 11  7  2  0  0  0  0
 12 11  1  0  0  0  0
  4 12  2  0  0  0  0
  2 13  2  0  0  0  0
M  END
> <ChemID>
100049

> <CAS>
62-44-2

> <Original_SMILES>
CC(=O)Nc1ccc(cc1)OCC

> <preferred_name>
Phenacetin

> <dsstox_substance_id>
DTXSID1021116

> <dsstox_compound_id>
DTXCID001116

> <qc_level>
DSSTox_Low

> <Canonical_QSARr>
CC(=O)NC1C=CC(=CC=1)OCC

> <InChI_Code_QSARr>
InChI=1S/C10H13NO2/c1-3-13-10-6-4-9(5-7-10)11-8(2)12/h4-7H,3H2,1-2H3,(H,11,12)

> <InChI Key_QSARr>
CPJSUEIXXCENMM-UHFFFAOYSA-N

> <Salt_Solvent>


> <Salt_Solvent_ID>
0

> <MPID>
100063

> <Tr_1_Tst_0>
1

> <Ready_Biodeg>
0.0

$$$$
Row47
  Mrv171c012251911052D          

  7  7  0  0  0  0            999 V2000
    1.4153    0.7000    0.0000 N   0  0  0  0  0  0  0  0  0  0  0  0
    1.4153   -0.1250    0.0000 C   0  0  0  0  0  0  0  0  0  0  0  0
    0.7009   -0.5375    0.0000 C   0  0  0  0  0  0  0  0  0  0  0  0
    0.7009   -1.3625    0.0000 C   0  0  0  0  0  0  0  0  0  0  0  0
    1.4153   -1.7750    0.0000 C   0  0  0  0  0  0  0  0  0  0  0  0
    2.1298   -1.3625    0.0000 C   0  0  0  0  0  0  0  0  0  0  0  0
    2.1298   -0.5375    0.0000 C   0  0  0  0  0  0  0  0  0  0  0  0
  1  2  1  0  0  0  0
  3  2  1  0  0  0  0
  4  3  2  0  0  0  0
  5  4  1  0  0  0  0
  6  5  2  0  0  0  0
  7  6  1  0  0  0  0
  2  7  2  0  0  0  0
M  END
> <ChemID>
100050

> <CAS>
62-53-3

> <Original_SMILES>
Nc1ccccc1

> <preferred_name>
Aniline

> <dsstox_substance_id>
DTXSID8020090

> <dsstox_compound_id>
DTXCID9090

> <qc_level>
DSSTox_High

> <Canonical_QSARr>
NC1C=CC=CC=1

> <InChI_Code_QSARr>
InChI=1S/C6H7N/c7-6-4-2-1-3-5-6/h1-5H,7H2

> <InChI Key_QSARr>
PAYRUJLWNCNPSJ-UHFFFAOYSA-N

> <Salt_Solvent>


> <Salt_Solvent_ID>
0

> <MPID>
100064

> <Tr_1_Tst_0>
1

> <Ready_Biodeg>
1.0

$$$$
Row48
  Mrv171c012251911052D          

 11 10  0  0  0  0            999 V2000
    2.0236   -3.0743    0.0000 O   0  0  0  0  0  0  0  0  0  0  0  0
    2.0236   -2.2493    0.0000 P   0  0  0  0  0  0  0  0  0  0  0  0
    2.8486   -2.2493    0.0000 O   0  0  0  0  0  0  0  0  0  0  0  0
    3.2611   -2.9637    0.0000 C   0  0  0  0  0  0  0  0  0  0  0  0
    2.0236   -1.4243    0.0000 O   0  0  0  0  0  0  0  0  0  0  0  0
    2.7380   -1.0118    0.0000 C   0  0  0  0  0  0  0  0  0  0  0  0
    1.1986   -2.2493    0.0000 O   0  0  0  0  0  0  0  0  0  0  0  0
    0.7861   -1.5348    0.0000 C   0  0  0  0  0  0  0  0  0  0  0  0
   -0.0389   -1.5348    0.0000 C   0  0  0  0  0  0  0  0  0  0  0  0
   -0.4514   -2.2493    0.0000 Cl  0  0  0  0  0  0  0  0  0  0  0  0
   -0.4514   -0.8203    0.0000 Cl  0  0  0  0  0  0  0  0  0  0  0  0
  1  2  2  0  0  0  0
  2  3  1  0  0  0  0
  3  4  1  0  0  0  0
  2  5  1  0  0  0  0
  5  6  1  0  0  0  0
  2  7  1  0  0  0  0
  7  8  1  0  0  0  0
  8  9  2  0  0  0  0
  9 10  1  0  0  0  0
  9 11  1  0  0  0  0
M  END
> <ChemID>
100051

> <CAS>
62-73-7

> <Original_SMILES>
COP(=O)(OC=C(Cl)Cl)OC

> <preferred_name>
Dichlorvos

> <dsstox_substance_id>
DTXSID5020449

> <dsstox_compound_id>
DTXCID90449

> <qc_level>
DSSTox_Low

> <Canonical_QSARr>
COP(=O)(OC=C(Cl)Cl)OC

> <InChI_Code_QSARr>
InChI=1S/C4H7Cl2O4P/c1-8-11(7,9-2)10-3-4(5)6/h3H,1-2H3

> <InChI Key_QSARr>
OEBRKCOSUFCWJD-UHFFFAOYSA-N

> <Salt_Solvent>


> <Salt_Solvent_ID>
0

> <MPID>
100065

> <Tr_1_Tst_0>
0

> <Ready_Biodeg>
1.0

$$$$
Row49
  Mrv171c012251911052D          

  5  4  0  0  0  0            999 V2000
    2.2164   -0.9681    0.0000 C   0  0  0  0  0  0  0  0  0  0  0  0
    1.3914   -0.9681    0.0000 N   0  0  0  0  0  0  0  0  0  0  0  0
    0.9789   -1.6826    0.0000 C   0  0  0  0  0  0  0  0  0  0  0  0
    0.9789   -0.2536    0.0000 N   0  0  0  0  0  0  0  0  0  0  0  0
    0.1539   -0.2536    0.0000 O   0  0  0  0  0  0  0  0  0  0  0  0
  1  2  1  0  0  0  0
  2  3  1  0  0  0  0
  2  4  1  0  0  0  0
  4  5  2  0  0  0  0
M  END
> <ChemID>
100052

> <CAS>
62-75-9

> <Original_SMILES>
CN(C)N=O

> <preferred_name>
N-Nitrosodimethylamine

> <dsstox_substance_id>
DTXSID7021029

> <dsstox_compound_id>
DTXCID301029

> <qc_level>
DSSTox_Low

> <Canonical_QSARr>
CN(C)N=O

> <InChI_Code_QSARr>
InChI=1S/C2H6N2O/c1-4(2)3-5/h1-2H3

> <InChI Key_QSARr>
UMFJAHHVKNCGLG-UHFFFAOYSA-N

> <Salt_Solvent>


> <Salt_Solvent_ID>
0

> <MPID>
100066

> <Tr_1_Tst_0>
1

> <Ready_Biodeg>
0.0

$$$$
Row50
  Mrv171c012251911052D          

 15 16  0  0  0  0            999 V2000
    0.7124   -2.3379    0.0000 O   0  0  0  0  0  0  0  0  0  0  0  0
    1.4268   -2.7504    0.0000 C   0  0  0  0  0  0  0  0  0  0  0  0
    1.4268   -3.5754    0.0000 N   0  0  0  0  0  0  0  0  0  0  0  0
    0.7124   -3.9879    0.0000 C   0  0  0  0  0  0  0  0  0  0  0  0
    2.1413   -2.3379    0.0000 O   0  0  0  0  0  0  0  0  0  0  0  0
    2.1413   -1.5129    0.0000 C   0  0  0  0  0  0  0  0  0  0  0  0
    1.4268   -1.1004    0.0000 C   0  0  0  0  0  0  0  0  0  0  0  0
    1.4268   -0.2754    0.0000 C   0  0  0  0  0  0  0  0  0  0  0  0
    2.1413    0.1371    0.0000 C   0  0  0  0  0  0  0  0  0  0  0  0
    2.8558   -0.2754    0.0000 C   0  0  0  0  0  0  0  0  0  0  0  0
    3.5703    0.1371    0.0000 C   0  0  0  0  0  0  0  0  0  0  0  0
    4.2847   -0.2754    0.0000 C   0  0  0  0  0  0  0  0  0  0  0  0
    4.2847   -1.1004    0.0000 C   0  0  0  0  0  0  0  0  0  0  0  0
    3.5703   -1.5129    0.0000 C   0  0  0  0  0  0  0  0  0  0  0  0
    2.8558   -1.1004    0.0000 C   0  0  0  0  0  0  0  0  0  0  0  0
  1  2  2  0  0  0  0
  2  3  1  0  0  0  0
  3  4  1  0  0  0  0
  2  5  1  0  0  0  0
  5  6  1  0  0  0  0
  7  6  1  0  0  0  0
  8  7  2  0  0  0  0
  9  8  1  0  0  0  0
 10  9  2  0  0  0  0
 10 11  1  0  0  0  0
 11 12  2  0  0  0  0
 12 13  1  0  0  0  0
 13 14  2  0  0  0  0
 14 15  1  0  0  0  0
  6 15  2  0  0  0  0
 15 10  1  0  0  0  0
M  END
> <ChemID>
100053

> <CAS>
63-25-2

> <Original_SMILES>
CNC(=O)Oc1cccc2ccccc21

> <preferred_name>
Carbaryl

> <dsstox_substance_id>
DTXSID9020247

> <dsstox_compound_id>
DTXCID10247

> <qc_level>
DSSTox_Low

> <Canonical_QSARr>
CNC(=O)OC1C=CC=C2C=CC=CC2=1

> <InChI_Code_QSARr>
InChI=1S/C12H11NO2/c1-13-12(14)15-11-8-4-6-9-5-2-3-7-10(9)11/h2-8H,1H3,(H,13,14)

> <InChI Key_QSARr>
CVXBEEMKQHEXEN-UHFFFAOYSA-N

> <Salt_Solvent>


> <Salt_Solvent_ID>
0

> <MPID>
100067

> <Tr_1_Tst_0>
1

> <Ready_Biodeg>
1.0

$$$$
Row51
  Mrv171c012251911052D          

 12 12  0  0  0  0            999 V2000
    3.1342   -2.7239    0.0000 C   0  0  0  0  0  0  0  0  0  0  0  0
    3.1342   -1.8989    0.0000 C   0  0  0  0  0  0  0  0  0  0  0  0
    2.4198   -1.4864    0.0000 C   0  0  0  0  0  0  0  0  0  0  0  0
    2.4198   -0.6614    0.0000 C   0  0  0  0  0  0  0  0  0  0  0  0
    1.7053   -0.2489    0.0000 C   0  0  0  0  0  0  0  0  0  0  0  0
    1.7053    0.5761    0.0000 C   0  0  0  0  0  0  0  0  0  0  0  0
    0.9908    0.9886    0.0000 O   0  0  0  0  0  0  0  0  0  0  0  0
    2.4198    0.9886    0.0000 O   0  0  0  0  0  0  0  0  0  0  0  0
    0.9908   -0.6614    0.0000 N   0  0  0  0  0  0  0  0  0  0  0  0
    1.7053   -1.8989    0.0000 C   0  0  0  0  0  0  0  0  0  0  0  0
    1.7053   -2.7239    0.0000 C   0  0  0  0  0  0  0  0  0  0  0  0
    2.4198   -3.1364    0.0000 C   0  0  0  0  0  0  0  0  0  0  0  0
  2  1  1  0  0  0  0
  3  2  2  0  0  0  0
  3  4  1  0  0  0  0
  4  5  1  0  0  0  0
  5  6  1  0  0  0  0
  6  7  2  0  0  0  0
  6  8  1  0  0  0  0
  5  9  1  0  0  0  0
 10  3  1  0  0  0  0
 11 10  2  0  0  0  0
 12 11  1  0  0  0  0
  1 12  2  0  0  0  0
M  END
> <ChemID>
100054

> <CAS>
63-91-2

> <Original_SMILES>
N[C@@H](Cc1ccccc1)C(O)=O

> <preferred_name>
L-Phenylalanine

> <dsstox_substance_id>
DTXSID4040763

> <dsstox_compound_id>
DTXCID2020763

> <qc_level>
DSSTox_Low

> <Canonical_QSARr>
NC(CC1C=CC=CC=1)C(O)=O

> <InChI_Code_QSARr>
InChI=1S/C9H11NO2/c10-8(9(11)12)6-7-4-2-1-3-5-7/h1-5,8H,6,10H2,(H,11,12)

> <InChI Key_QSARr>
COLNVLDHVKWLRT-UHFFFAOYSA-N

> <Salt_Solvent>


> <Salt_Solvent_ID>
0

> <MPID>
100068

> <Tr_1_Tst_0>
1

> <Ready_Biodeg>
1.0

$$$$
Row52
  Mrv171c012251911052D          

  9  9  0  0  0  0            999 V2000
    0.7145    1.2375    0.0000 C   0  0  0  0  0  0  0  0  0  0  0  0
    0.7145    2.0625    0.0000 C   0  0  0  0  0  0  0  0  0  0  0  0
    1.4289    2.4750    0.0000 C   0  0  0  0  0  0  0  0  0  0  0  0
    1.4289    3.3000    0.0000 N   0  0  0  0  0  0  0  0  0  0  0  0
   -0.0000    0.8250    0.0000 C   0  0  0  0  0  0  0  0  0  0  0  0
   -0.0000   -0.0000    0.0000 C   0  0  0  0  0  0  0  0  0  0  0  0
    0.7145   -0.4125    0.0000 C   0  0  0  0  0  0  0  0  0  0  0  0
    1.4289    0.0000    0.0000 C   0  0  0  0  0  0  0  0  0  0  0  0
    1.4289    0.8250    0.0000 C   0  0  0  0  0  0  0  0  0  0  0  0
  1  2  1  0  0  0  0
  2  3  1  0  0  0  0
  3  4  1  0  0  0  0
  5  1  1  0  0  0  0
  6  5  2  0  0  0  0
  7  6  1  0  0  0  0
  8  7  2  0  0  0  0
  9  8  1  0  0  0  0
  1  9  2  0  0  0  0
M  END
> <ChemID>
100055

> <CAS>
64-04-0

> <Original_SMILES>
NCCc1ccccc1

> <preferred_name>
Phenethylamine

> <dsstox_substance_id>
DTXSID5058773

> <dsstox_compound_id>
DTXCID3044172

> <qc_level>
Public_High

> <Canonical_QSARr>
NCCC1C=CC=CC=1

> <InChI_Code_QSARr>
InChI=1S/C8H11N/c9-7-6-8-4-2-1-3-5-8/h1-5H,6-7,9H2

> <InChI Key_QSARr>
BHHGXPLMPWCGHP-UHFFFAOYSA-N

> <Salt_Solvent>


> <Salt_Solvent_ID>
0

> <MPID>
100069

> <Tr_1_Tst_0>
0

> <Ready_Biodeg>
1.0

$$$$
Row53
  Mrv171c012251911052D          

  3  2  0  0  0  0            999 V2000
   -0.0002   -0.1377    0.0000 C   0  0  0  0  0  0  0  0  0  0  0  0
    0.7143   -0.5502    0.0000 C   0  0  0  0  0  0  0  0  0  0  0  0
    1.4287   -0.1377    0.0000 O   0  0  0  0  0  0  0  0  0  0  0  0
  1  2  1  0  0  0  0
  2  3  1  0  0  0  0
M  END
> <ChemID>
100056

> <CAS>
64-17-5

> <Original_SMILES>
CCO

> <preferred_name>
Ethanol

> <dsstox_substance_id>
DTXSID9020584

> <dsstox_compound_id>
DTXCID30584

> <qc_level>
DSSTox_High

> <Canonical_QSARr>
CCO

> <InChI_Code_QSARr>
InChI=1S/C2H6O/c1-2-3/h3H,2H2,1H3

> <InChI Key_QSARr>
LFQSCWFLJHTTHZ-UHFFFAOYSA-N

> <Salt_Solvent>


> <Salt_Solvent_ID>
0

> <MPID>
100070

> <Tr_1_Tst_0>
1

> <Ready_Biodeg>
1.0

$$$$
Row54
  Mrv171c012251911052D          

  3  2  0  0  0  0            999 V2000
    0.7161   -0.4116    0.0000 C   0  0  0  0  0  0  0  0  0  0  0  0
    0.0016    0.0009    0.0000 O   0  0  0  0  0  0  0  0  0  0  0  0
    1.4306    0.0009    0.0000 O   0  0  0  0  0  0  0  0  0  0  0  0
  1  2  1  0  0  0  0
  1  3  2  0  0  0  0
M  END
> <ChemID>
100057

> <CAS>
64-18-6

> <Original_SMILES>
OC=O

> <preferred_name>
Formic acid

> <dsstox_substance_id>
DTXSID2024115

> <dsstox_compound_id>
DTXCID904115

> <qc_level>
DSSTox_Low

> <Canonical_QSARr>
OC=O

> <InChI_Code_QSARr>
InChI=1S/CH2O2/c2-1-3/h1H,(H,2,3)

> <InChI Key_QSARr>
BDAGIHXWWSANSR-UHFFFAOYSA-N

> <Salt_Solvent>


> <Salt_Solvent_ID>
0

> <MPID>
100071

> <Tr_1_Tst_0>
1

> <Ready_Biodeg>
1.0

$$$$
Row55
  Mrv171c012251911052D          

  4  3  0  0  0  0            999 V2000
    0.8246   -0.7143    0.0000 C   0  0  0  0  0  0  0  0  0  0  0  0
    1.2371    0.0002    0.0000 O   0  0  0  0  0  0  0  0  0  0  0  0
    1.2371   -1.4287    0.0000 O   0  0  0  0  0  0  0  0  0  0  0  0
   -0.0004   -0.7143    0.0000 C   0  0  0  0  0  0  0  0  0  0  0  0
  1  2  1  0  0  0  0
  1  3  2  0  0  0  0
  1  4  1  0  0  0  0
M  END
> <ChemID>
100058

> <CAS>
64-19-7

> <Original_SMILES>
CC(O)=O

> <preferred_name>
Acetic acid

> <dsstox_substance_id>
DTXSID5024394

> <dsstox_compound_id>
DTXCID304394

> <qc_level>
DSSTox_High

> <Canonical_QSARr>
CC(O)=O

> <InChI_Code_QSARr>
InChI=1S/C2H4O2/c1-2(3)4/h1H3,(H,3,4)

> <InChI Key_QSARr>
QTBSBXVTEAMEQO-UHFFFAOYSA-N

> <Salt_Solvent>


> <Salt_Solvent_ID>
0

> <MPID>
100072

> <Tr_1_Tst_0>
1

> <Ready_Biodeg>
1.0

$$$$
Row56
  Mrv171c012251911052D          

  9  8  0  0  0  0            999 V2000
    3.8858   -1.7479    0.0000 C   0  0  0  0  0  0  0  0  0  0  0  0
    3.0608   -1.7479    0.0000 C   0  0  0  0  0  0  0  0  0  0  0  0
    2.6483   -1.0334    0.0000 O   0  0  0  0  0  0  0  0  0  0  0  0
    1.8233   -1.0334    0.0000 S   0  0  0  0  0  0  0  0  0  0  0  0
    1.8233   -0.2084    0.0000 O   0  0  0  0  0  0  0  0  0  0  0  0
    1.8233   -1.8584    0.0000 O   0  0  0  0  0  0  0  0  0  0  0  0
    0.9983   -1.0334    0.0000 O   0  0  0  0  0  0  0  0  0  0  0  0
    0.5858   -0.3189    0.0000 C   0  0  0  0  0  0  0  0  0  0  0  0
   -0.2392   -0.3189    0.0000 C   0  0  0  0  0  0  0  0  0  0  0  0
  1  2  1  0  0  0  0
  2  3  1  0  0  0  0
  3  4  1  0  0  0  0
  4  5  2  0  0  0  0
  4  6  2  0  0  0  0
  4  7  1  0  0  0  0
  7  8  1  0  0  0  0
  8  9  1  0  0  0  0
M  END
> <ChemID>
100059

> <CAS>
64-67-5

> <Original_SMILES>
CCOS(=O)(=O)OCC

> <preferred_name>
Diethyl sulfate

> <dsstox_substance_id>
DTXSID1024045

> <dsstox_compound_id>
DTXCID604045

> <qc_level>
DSSTox_Low

> <Canonical_QSARr>
CCOS(=O)(=O)OCC

> <InChI_Code_QSARr>
InChI=1S/C4H10O4S/c1-3-7-9(5,6)8-4-2/h3-4H2,1-2H3

> <InChI Key_QSARr>
DENRZWYUOJLTMF-UHFFFAOYSA-N

> <Salt_Solvent>


> <Salt_Solvent_ID>
0

> <MPID>
100073

> <Tr_1_Tst_0>
0

> <Ready_Biodeg>
1.0

$$$$
Row57
  Mrv171c012251911052D          

  9  9  0  0  0  0            999 V2000
    2.1337    0.7064    0.0000 O   0  0  0  0  0  0  0  0  0  0  0  0
    1.4193    0.2939    0.0000 C   0  0  0  0  0  0  0  0  0  0  0  0
    1.4193   -0.5311    0.0000 C   0  0  0  0  0  0  0  0  0  0  0  0
    0.7048   -0.9436    0.0000 C   0  0  0  0  0  0  0  0  0  0  0  0
    0.7048   -1.7686    0.0000 C   0  0  0  0  0  0  0  0  0  0  0  0
    1.4193   -2.1811    0.0000 C   0  0  0  0  0  0  0  0  0  0  0  0
    2.1337   -1.7686    0.0000 C   0  0  0  0  0  0  0  0  0  0  0  0
    2.1337   -0.9436    0.0000 C   0  0  0  0  0  0  0  0  0  0  0  0
    0.7048    0.7064    0.0000 O   0  0  0  0  0  0  0  0  0  0  0  0
  1  2  1  0  0  0  0
  2  3  1  0  0  0  0
  4  3  1  0  0  0  0
  5  4  2  0  0  0  0
  6  5  1  0  0  0  0
  7  6  2  0  0  0  0
  8  7  1  0  0  0  0
  3  8  2  0  0  0  0
  2  9  2  0  0  0  0
M  END
> <ChemID>
100060

> <CAS>
65-85-0

> <Original_SMILES>
OC(=O)c1ccccc1

> <preferred_name>
Benzoic acid

> <dsstox_substance_id>
DTXSID6020143

> <dsstox_compound_id>
DTXCID80143

> <qc_level>
DSSTox_High

> <Canonical_QSARr>
OC(=O)C1C=CC=CC=1

> <InChI_Code_QSARr>
InChI=1S/C7H6O2/c8-7(9)6-4-2-1-3-5-6/h1-5H,(H,8,9)

> <InChI Key_QSARr>
WPYMKLBDIGXBTP-UHFFFAOYSA-N

> <Salt_Solvent>


> <Salt_Solvent_ID>
0

> <MPID>
100074

> <Tr_1_Tst_0>
1

> <Ready_Biodeg>
1.0

$$$$
Row58
  Mrv171c012251911052D          

  7  6  0  0  0  0            999 V2000
   -0.0018   -0.0582    0.0000 C   0  0  0  0  0  0  0  0  0  0  0  0
    0.7127   -0.4707    0.0000 C   0  0  0  0  0  0  0  0  0  0  0  0
    1.4272   -0.0582    0.0000 C   0  0  0  0  0  0  0  0  0  0  0  0
    2.1416   -0.4707    0.0000 C   0  0  0  0  0  0  0  0  0  0  0  0
    2.8561   -0.0582    0.0000 C   0  0  0  0  0  0  0  0  0  0  0  0
    3.5706   -0.4707    0.0000 C   0  0  0  0  0  0  0  0  0  0  0  0
    4.2850   -0.0582    0.0000 O   0  0  0  0  0  0  0  0  0  0  0  0
  1  2  1  0  0  0  0
  2  3  1  0  0  0  0
  3  4  1  0  0  0  0
  4  5  1  0  0  0  0
  5  6  1  0  0  0  0
  6  7  2  0  0  0  0
M  END
> <ChemID>
100061

> <CAS>
66-25-1

> <Original_SMILES>
CCCCCC=O

> <preferred_name>
Hexanal

> <dsstox_substance_id>
DTXSID2021604

> <dsstox_compound_id>
DTXCID901604

> <qc_level>
DSSTox_Low

> <Canonical_QSARr>
CCCCCC=O

> <InChI_Code_QSARr>
InChI=1S/C6H12O/c1-2-3-4-5-6-7/h6H,2-5H2,1H3

> <InChI Key_QSARr>
JARKCYVAAOWBJS-UHFFFAOYSA-N

> <Salt_Solvent>


> <Salt_Solvent_ID>
0

> <MPID>
100075

> <Tr_1_Tst_0>
1

> <Ready_Biodeg>
1.0

$$$$
Row59
  Mrv171c012251911052D          

 12 12  0  0  0  0            999 V2000
    2.5091   -1.0328    0.0000 C   0  0  0  0  0  0  0  0  0  0  0  0
    3.2236   -0.6203    0.0000 C   0  0  0  0  0  0  0  0  0  0  0  0
    3.9381   -1.0328    0.0000 O   0  0  0  0  0  0  0  0  0  0  0  0
    1.7947   -0.6203    0.0000 C   0  0  0  0  0  0  0  0  0  0  0  0
    1.7947    0.2047    0.0000 C   0  0  0  0  0  0  0  0  0  0  0  0
    1.0802    0.6172    0.0000 O   0  0  0  0  0  0  0  0  0  0  0  0
    1.0802   -1.0328    0.0000 C   0  0  0  0  0  0  0  0  0  0  0  0
    1.0802   -1.8578    0.0000 N   0  0  0  0  0  0  0  0  0  0  0  0
    1.7947   -2.2703    0.0000 C   0  0  0  0  0  0  0  0  0  0  0  0
    1.7947   -3.0953    0.0000 C   0  0  0  0  0  0  0  0  0  0  0  0
    2.5091   -1.8578    0.0000 C   0  0  0  0  0  0  0  0  0  0  0  0
    3.2236   -2.2703    0.0000 O   0  0  0  0  0  0  0  0  0  0  0  0
  1  2  1  0  0  0  0
  2  3  2  0  0  0  0
  4  1  2  0  0  0  0
  4  5  1  0  0  0  0
  5  6  1  0  0  0  0
  7  4  1  0  0  0  0
  8  7  2  0  0  0  0
  9  8  1  0  0  0  0
  9 10  1  0  0  0  0
 11  9  2  0  0  0  0
  1 11  1  0  0  0  0
 11 12  1  0  0  0  0
M  END
> <ChemID>
100062

> <CAS>
66-72-8

> <Original_SMILES>
Cc1[n]cc(CO)c(C=O)c1O

> <preferred_name>
Pyridoxal

> <dsstox_substance_id>
DTXSID4046020

> <dsstox_compound_id>
DTXCID2026020

> <qc_level>
DSSTox_Low

> <Canonical_QSARr>
CC1N=CC(CO)=C(C=O)C=1O

> <InChI_Code_QSARr>
InChI=1S/C8H9NO3/c1-5-8(12)7(4-11)6(3-10)2-9-5/h2,4,10,12H,3H2,1H3

> <InChI Key_QSARr>
RADKZDMFGJYCBB-UHFFFAOYSA-N

> <Salt_Solvent>


> <Salt_Solvent_ID>
0

> <MPID>
100076

> <Tr_1_Tst_0>
1

> <Ready_Biodeg>
1.0

$$$$
Row60
  Mrv171c012251911052D          

 20 21  0  0  0  0            999 V2000
    3.4929   -3.6437    0.0000 C   0  0  0  0  0  0  0  0  0  0  0  0
    4.2074   -4.0562    0.0000 C   0  0  0  0  0  0  0  0  0  0  0  0
    3.4929   -2.8187    0.0000 C   0  0  0  0  0  0  0  0  0  0  0  0
    2.7785   -2.4062    0.0000 C   0  0  0  0  0  0  0  0  0  0  0  0
    2.7785   -1.5812    0.0000 C   0  0  0  0  0  0  0  0  0  0  0  0
    2.0640   -1.1687    0.0000 O   0  0  0  0  0  0  0  0  0  0  0  0
    3.4929   -1.1687    0.0000 C   0  0  0  0  0  0  0  0  0  0  0  0
    3.4929   -0.3437    0.0000 C   0  0  0  0  0  0  0  0  0  0  0  0
    4.2074    0.0688    0.0000 C   0  0  0  0  0  0  0  0  0  0  0  0
    4.2074    0.8938    0.0000 C   0  0  0  0  0  0  0  0  0  0  0  0
    4.9219    1.3063    0.0000 O   0  0  0  0  0  0  0  0  0  0  0  0
    3.4929    1.3063    0.0000 N   0  0  0  0  0  0  0  0  0  0  0  0
    2.7785    0.8938    0.0000 C   0  0  0  0  0  0  0  0  0  0  0  0
    2.0640    1.3063    0.0000 O   0  0  0  0  0  0  0  0  0  0  0  0
    2.7785    0.0688    0.0000 C   0  0  0  0  0  0  0  0  0  0  0  0
    2.0640   -2.8187    0.0000 C   0  0  0  0  0  0  0  0  0  0  0  0
    1.3495   -2.4062    0.0000 O   0  0  0  0  0  0  0  0  0  0  0  0
    2.0640   -3.6437    0.0000 C   0  0  0  0  0  0  0  0  0  0  0  0
    1.3495   -4.0562    0.0000 C   0  0  0  0  0  0  0  0  0  0  0  0
    2.7785   -4.0562    0.0000 C   0  0  0  0  0  0  0  0  0  0  0  0
  1  2  1  0  0  0  0
  3  1  1  0  0  0  0
  4  3  1  0  0  0  0
  4  5  1  0  0  0  0
  5  6  1  0  0  0  0
  5  7  1  0  0  0  0
  7  8  1  0  0  0  0
  9  8  1  0  0  0  0
 10  9  1  0  0  0  0
 10 11  2  0  0  0  0
 12 10  1  0  0  0  0
 13 12  1  0  0  0  0
 13 14  2  0  0  0  0
 15 13  1  0  0  0  0
  8 15  1  0  0  0  0
 16  4  1  0  0  0  0
 16 17  2  0  0  0  0
 18 16  1  0  0  0  0
 18 19  1  0  0  0  0
 20 18  1  0  0  0  0
  1 20  1  0  0  0  0
M  END
> <ChemID>
100063

> <CAS>
66-81-9

> <Original_SMILES>
C[C@@H]1C[C@@H]([C@H](O)CC2CC(=O)NC(=O)C2)C(=O)[C@@H](C)C1

> <preferred_name>
Cycloheximide

> <dsstox_substance_id>
DTXSID6024882

> <dsstox_compound_id>
DTXCID204882

> <qc_level>
DSSTox_Low

> <Canonical_QSARr>
CC1CC(C(O)CC2CC(=O)NC(=O)C2)C(=O)C(C)C1

> <InChI_Code_QSARr>
InChI=1S/C15H23NO4/c1-8-3-9(2)15(20)11(4-8)12(17)5-10-6-13(18)16-14(19)7-10/h8-12,17H,3-7H2,1-2H3,(H,16,18,19)

> <InChI Key_QSARr>
YPHMISFOHDHNIV-UHFFFAOYSA-N

> <Salt_Solvent>


> <Salt_Solvent_ID>
0

> <MPID>
100077

> <Tr_1_Tst_0>
0

> <Ready_Biodeg>
1.0

$$$$
Row61
  Mrv171c012251911052D          

  9  9  0  0  0  0            999 V2000
    3.0800   -2.2546    0.0000 O   0  0  0  0  0  0  0  0  0  0  0  0
    2.3655   -1.8421    0.0000 C   0  0  0  0  0  0  0  0  0  0  0  0
    2.3655   -1.0171    0.0000 N   0  0  0  0  0  0  0  0  0  0  0  0
    1.6511   -0.6046    0.0000 C   0  0  0  0  0  0  0  0  0  0  0  0
    1.6511    0.2204    0.0000 O   0  0  0  0  0  0  0  0  0  0  0  0
    0.9366   -1.0171    0.0000 N   0  0  0  0  0  0  0  0  0  0  0  0
    0.9366   -1.8421    0.0000 C   0  0  0  0  0  0  0  0  0  0  0  0
    0.2221   -2.2546    0.0000 O   0  0  0  0  0  0  0  0  0  0  0  0
    1.6511   -2.2546    0.0000 C   0  0  0  0  0  0  0  0  0  0  0  0
  1  2  2  0  0  0  0
  3  2  1  0  0  0  0
  4  3  1  0  0  0  0
  4  5  2  0  0  0  0
  6  4  1  0  0  0  0
  7  6  1  0  0  0  0
  7  8  2  0  0  0  0
  9  7  1  0  0  0  0
  2  9  1  0  0  0  0
M  END
> <ChemID>
100065

> <CAS>
67-52-7

> <Original_SMILES>
O=C1NC(=O)CC(=O)N1

> <preferred_name>
Barbituric acid

> <dsstox_substance_id>
DTXSID8020129

> <dsstox_compound_id>
DTXCID20129

> <qc_level>
DSSTox_Low

> <Canonical_QSARr>
O=C1NC(=O)CC(=O)N1

> <InChI_Code_QSARr>
InChI=1S/C4H4N2O3/c7-2-1-3(8)6-4(9)5-2/h1H2,(H2,5,6,7,8,9)

> <InChI Key_QSARr>
HNYOPLTXPVRDBG-UHFFFAOYSA-N

> <Salt_Solvent>


> <Salt_Solvent_ID>
0

> <MPID>
100078

> <Tr_1_Tst_0>
1

> <Ready_Biodeg>
1.0

$$$$
Row62
  Mrv171c012251911052D          

  2  1  0  0  0  0            999 V2000
    0.8250    0.0000    0.0000 C   0  0  0  0  0  0  0  0  0  0  0  0
    0.0000    0.0000    0.0000 O   0  0  0  0  0  0  0  0  0  0  0  0
  1  2  1  0  0  0  0
M  END
> <ChemID>
100066

> <CAS>
67-56-1

> <Original_SMILES>
CO

> <preferred_name>
Methanol

> <dsstox_substance_id>
DTXSID2021731

> <dsstox_compound_id>
DTXCID801731

> <qc_level>
DSSTox_Low

> <Canonical_QSARr>
CO

> <InChI_Code_QSARr>
InChI=1S/CH4O/c1-2/h2H,1H3

> <InChI Key_QSARr>
OKKJLVBELUTLKV-UHFFFAOYSA-N

> <Salt_Solvent>


> <Salt_Solvent_ID>
0

> <MPID>
100079

> <Tr_1_Tst_0>
1

> <Ready_Biodeg>
1.0

$$$$
Row63
  Mrv171c012251911052D          

  4  3  0  0  0  0            999 V2000
    1.1268   -0.1101    0.0000 O   0  0  0  0  0  0  0  0  0  0  0  0
    0.7143   -0.8246    0.0000 C   0  0  0  0  0  0  0  0  0  0  0  0
    1.1268   -1.5391    0.0000 C   0  0  0  0  0  0  0  0  0  0  0  0
   -0.1107   -0.8246    0.0000 C   0  0  0  0  0  0  0  0  0  0  0  0
  1  2  1  0  0  0  0
  2  3  1  0  0  0  0
  2  4  1  0  0  0  0
M  END
> <ChemID>
100067

> <CAS>
67-63-0

> <Original_SMILES>
CC(C)O

> <preferred_name>
Isopropanol

> <dsstox_substance_id>
DTXSID7020762

> <dsstox_compound_id>
DTXCID50762

> <qc_level>
DSSTox_Low

> <Canonical_QSARr>
CC(C)O

> <InChI_Code_QSARr>
InChI=1S/C3H8O/c1-3(2)4/h3-4H,1-2H3

> <InChI Key_QSARr>
KFZMGEQAYNKOFK-UHFFFAOYSA-N

> <Salt_Solvent>


> <Salt_Solvent_ID>
0

> <MPID>
100080

> <Tr_1_Tst_0>
1

> <Ready_Biodeg>
1.0

$$$$
Row64
  Mrv171c012251911052D          

  4  3  0  0  0  0            999 V2000
    1.2371    0.0002    0.0000 C   0  0  0  0  0  0  0  0  0  0  0  0
    0.8246   -0.7143    0.0000 C   0  0  0  0  0  0  0  0  0  0  0  0
    1.2371   -1.4287    0.0000 O   0  0  0  0  0  0  0  0  0  0  0  0
   -0.0004   -0.7143    0.0000 C   0  0  0  0  0  0  0  0  0  0  0  0
  1  2  1  0  0  0  0
  2  3  2  0  0  0  0
  2  4  1  0  0  0  0
M  END
> <ChemID>
100068

> <CAS>
67-64-1

> <Original_SMILES>
CC(C)=O

> <preferred_name>
Acetone

> <dsstox_substance_id>
DTXSID8021482

> <dsstox_compound_id>
DTXCID101482

> <qc_level>
DSSTox_Low

> <Canonical_QSARr>
CC(C)=O

> <InChI_Code_QSARr>
InChI=1S/C3H6O/c1-3(2)4/h1-2H3

> <InChI Key_QSARr>
CSCPPACGZOOCGX-UHFFFAOYSA-N

> <Salt_Solvent>


> <Salt_Solvent_ID>
0

> <MPID>
100081

> <Tr_1_Tst_0>
0

> <Ready_Biodeg>
1.0

$$$$
Row65
  Mrv171c012251911052D          

  4  3  0  0  0  0            999 V2000
    1.2371    0.0002    0.0000 Cl  0  0  0  0  0  0  0  0  0  0  0  0
    0.8246   -0.7143    0.0000 C   0  0  0  0  0  0  0  0  0  0  0  0
    1.2371   -1.4287    0.0000 Cl  0  0  0  0  0  0  0  0  0  0  0  0
   -0.0004   -0.7143    0.0000 Cl  0  0  0  0  0  0  0  0  0  0  0  0
  1  2  1  0  0  0  0
  2  3  1  0  0  0  0
  2  4  1  0  0  0  0
M  END
> <ChemID>
100069

> <CAS>
67-66-3

> <Original_SMILES>
ClC(Cl)Cl

> <preferred_name>
Chloroform

> <dsstox_substance_id>
DTXSID1020306

> <dsstox_compound_id>
DTXCID10306

> <qc_level>
DSSTox_Low

> <Canonical_QSARr>
ClC(Cl)Cl

> <InChI_Code_QSARr>
InChI=1S/CHCl3/c2-1(3)4/h1H

> <InChI Key_QSARr>
HEDRZPFGACZZDS-UHFFFAOYSA-N

> <Salt_Solvent>


> <Salt_Solvent_ID>
0

> <MPID>
100082

> <Tr_1_Tst_0>
1

> <Ready_Biodeg>
0.0

$$$$
Row66
  Mrv171c012251911052D          

  4  3  0  0  0  0            999 V2000
    1.2371    0.0002    0.0000 C   0  0  0  0  0  0  0  0  0  0  0  0
    0.8246   -0.7143    0.0000 S   0  0  0  0  0  0  0  0  0  0  0  0
    1.2371   -1.4287    0.0000 C   0  0  0  0  0  0  0  0  0  0  0  0
   -0.0004   -0.7143    0.0000 O   0  0  0  0  0  0  0  0  0  0  0  0
  1  2  1  0  0  0  0
  2  3  1  0  0  0  0
  2  4  2  0  0  0  0
M  END
> <ChemID>
100070

> <CAS>
67-68-5

> <Original_SMILES>
CS(C)=O

> <preferred_name>
Dimethyl sulfoxide

> <dsstox_substance_id>
DTXSID2021735

> <dsstox_compound_id>
DTXCID401735

> <qc_level>
DSSTox_Low

> <Canonical_QSARr>
CS(C)=O

> <InChI_Code_QSARr>
InChI=1S/C2H6OS/c1-4(2)3/h1-2H3

> <InChI Key_QSARr>
IAZDPXIOMUYVGZ-UHFFFAOYSA-N

> <Salt_Solvent>


> <Salt_Solvent_ID>
0

> <MPID>
100083

> <Tr_1_Tst_0>
1

> <Ready_Biodeg>
0.0

$$$$
Row67
  Mrv171c012251911052D          

  8  7  0  0  0  0            999 V2000
    0.8232   -2.4725    0.0000 Cl  0  0  0  0  0  0  0  0  0  0  0  0
    0.8232   -1.6475    0.0000 C   0  0  0  0  0  0  0  0  0  0  0  0
    1.6482   -1.6475    0.0000 Cl  0  0  0  0  0  0  0  0  0  0  0  0
   -0.0018   -1.6475    0.0000 Cl  0  0  0  0  0  0  0  0  0  0  0  0
    0.8232   -0.8225    0.0000 C   0  0  0  0  0  0  0  0  0  0  0  0
    0.8232    0.0025    0.0000 Cl  0  0  0  0  0  0  0  0  0  0  0  0
    1.6482   -0.8225    0.0000 Cl  0  0  0  0  0  0  0  0  0  0  0  0
   -0.0018   -0.8225    0.0000 Cl  0  0  0  0  0  0  0  0  0  0  0  0
  1  2  1  0  0  0  0
  2  3  1  0  0  0  0
  2  4  1  0  0  0  0
  2  5  1  0  0  0  0
  5  6  1  0  0  0  0
  5  7  1  0  0  0  0
  5  8  1  0  0  0  0
M  END
> <ChemID>
100071

> <CAS>
67-72-1

> <Original_SMILES>
ClC(Cl)(Cl)C(Cl)(Cl)Cl

> <preferred_name>
Hexachloroethane

> <dsstox_substance_id>
DTXSID7020689

> <dsstox_compound_id>
DTXCID90689

> <qc_level>
DSSTox_Low

> <Canonical_QSARr>
ClC(Cl)(Cl)C(Cl)(Cl)Cl

> <InChI_Code_QSARr>
InChI=1S/C2Cl6/c3-1(4,5)2(6,7)8

> <InChI Key_QSARr>
VHHHONWQHHHLTI-UHFFFAOYSA-N

> <Salt_Solvent>


> <Salt_Solvent_ID>
0

> <MPID>
100084

> <Tr_1_Tst_0>
1

> <Ready_Biodeg>
0.0

$$$$
Row68
  Mrv171c012251911052D          

  5  4  0  0  0  0            999 V2000
    1.5548   -1.8243    0.0000 O   0  0  0  0  0  0  0  0  0  0  0  0
    1.1423   -1.1098    0.0000 C   0  0  0  0  0  0  0  0  0  0  0  0
    1.5548   -0.3954    0.0000 C   0  0  0  0  0  0  0  0  0  0  0  0
    1.1423    0.3191    0.0000 S   0  0  0  0  0  0  0  0  0  0  0  0
    0.3173   -1.1098    0.0000 O   0  0  0  0  0  0  0  0  0  0  0  0
  1  2  2  0  0  0  0
  2  3  1  0  0  0  0
  3  4  1  0  0  0  0
  2  5  1  0  0  0  0
M  END
> <ChemID>
100072

> <CAS>
68-11-1

> <Original_SMILES>
OC(=O)CS

> <preferred_name>
Thioglycolic acid

> <dsstox_substance_id>
DTXSID8026141

> <dsstox_compound_id>
DTXCID406141

> <qc_level>
DSSTox_Low

> <Canonical_QSARr>
OC(=O)CS

> <InChI_Code_QSARr>
InChI=1S/C2H4O2S/c3-2(4)1-5/h5H,1H2,(H,3,4)

> <InChI Key_QSARr>
CWERGRDVMFNCDR-UHFFFAOYSA-N

> <Salt_Solvent>


> <Salt_Solvent_ID>
0

> <MPID>
100085

> <Tr_1_Tst_0>
0

> <Ready_Biodeg>
1.0

$$$$
Row69
  Mrv171c012251911052D          

  5  4  0  0  0  0            999 V2000
    2.2164   -0.9681    0.0000 C   0  0  0  0  0  0  0  0  0  0  0  0
    1.3914   -0.9681    0.0000 N   0  0  0  0  0  0  0  0  0  0  0  0
    0.9789   -1.6826    0.0000 C   0  0  0  0  0  0  0  0  0  0  0  0
    0.9789   -0.2536    0.0000 C   0  0  0  0  0  0  0  0  0  0  0  0
    0.1539   -0.2536    0.0000 O   0  0  0  0  0  0  0  0  0  0  0  0
  1  2  1  0  0  0  0
  2  3  1  0  0  0  0
  2  4  1  0  0  0  0
  4  5  2  0  0  0  0
M  END
> <ChemID>
100073

> <CAS>
68-12-2

> <Original_SMILES>
CN(C)C=O

> <preferred_name>
N,N-Dimethylformamide

> <dsstox_substance_id>
DTXSID6020515

> <dsstox_compound_id>
DTXCID20515

> <qc_level>
DSSTox_High

> <Canonical_QSARr>
CN(C)C=O

> <InChI_Code_QSARr>
InChI=1S/C3H7NO/c1-4(2)3-5/h3H,1-2H3

> <InChI Key_QSARr>
ZMXDDKWLCZADIW-UHFFFAOYSA-N

> <Salt_Solvent>


> <Salt_Solvent_ID>
0

> <MPID>
100086

> <Tr_1_Tst_0>
1

> <Ready_Biodeg>
1.0

$$$$
Row70
  Mrv171c012251911052D          

 10 10  0  0  0  0            999 V2000
    1.1526   -1.5038    0.0000 C   0  0  0  0  0  0  0  0  0  0  0  0
    1.1526   -2.3288    0.0000 C   0  0  0  0  0  0  0  0  0  0  0  0
    1.8671   -2.7413    0.0000 C   0  0  0  0  0  0  0  0  0  0  0  0
    2.5816   -2.3288    0.0000 C   0  0  0  0  0  0  0  0  0  0  0  0
    2.5816   -1.5038    0.0000 C   0  0  0  0  0  0  0  0  0  0  0  0
    1.8671   -1.0913    0.0000 C   0  0  0  0  0  0  0  0  0  0  0  0
    1.8671   -0.2663    0.0000 O   0  0  0  0  0  0  0  0  0  0  0  0
    0.4382   -1.0913    0.0000 C   0  0  0  0  0  0  0  0  0  0  0  0
   -0.2763   -1.5038    0.0000 O   0  0  0  0  0  0  0  0  0  0  0  0
    0.4382   -0.2663    0.0000 O   0  0  0  0  0  0  0  0  0  0  0  0
  2  1  1  0  0  0  0
  3  2  2  0  0  0  0
  4  3  1  0  0  0  0
  5  4  2  0  0  0  0
  6  5  1  0  0  0  0
  1  6  2  0  0  0  0
  6  7  1  0  0  0  0
  1  8  1  0  0  0  0
  8  9  1  0  0  0  0
  8 10  2  0  0  0  0
M  END
> <ChemID>
100074

> <CAS>
69-72-7

> <Original_SMILES>
Oc1ccccc1C(O)=O

> <preferred_name>
Salicylic acid

> <dsstox_substance_id>
DTXSID7026368

> <dsstox_compound_id>
DTXCID206368

> <qc_level>
DSSTox_Low

> <Canonical_QSARr>
OC1C=CC=CC=1C(O)=O

> <InChI_Code_QSARr>
InChI=1S/C7H6O3/c8-6-4-2-1-3-5(6)7(9)10/h1-4,8H,(H,9,10)

> <InChI Key_QSARr>
YGSDEFSMJLZEOE-UHFFFAOYSA-N

> <Salt_Solvent>


> <Salt_Solvent_ID>
0

> <MPID>
100087

> <Tr_1_Tst_0>
1

> <Ready_Biodeg>
1.0

$$$$
Row71
  Mrv171c012251911052D          

 21 22  0  0  0  0            999 V2000
    0.9357   -2.1061    0.0000 O   0  0  0  0  0  0  0  0  0  0  0  0
    1.6502   -2.5186    0.0000 C   0  0  0  0  0  0  0  0  0  0  0  0
    2.3647   -2.1061    0.0000 C   0  0  0  0  0  0  0  0  0  0  0  0
    2.3647   -1.2811    0.0000 C   0  0  0  0  0  0  0  0  0  0  0  0
    3.0791   -0.8686    0.0000 C   0  0  0  0  0  0  0  0  0  0  0  0
    3.7936   -1.2811    0.0000 C   0  0  0  0  0  0  0  0  0  0  0  0
    3.7936   -2.1061    0.0000 Cl  0  0  0  0  0  0  0  0  0  0  0  0
    4.5081   -0.8686    0.0000 C   0  0  0  0  0  0  0  0  0  0  0  0
    5.2225   -1.2811    0.0000 Cl  0  0  0  0  0  0  0  0  0  0  0  0
    4.5081   -0.0436    0.0000 C   0  0  0  0  0  0  0  0  0  0  0  0
    3.7936    0.3689    0.0000 C   0  0  0  0  0  0  0  0  0  0  0  0
    3.7936    1.1939    0.0000 Cl  0  0  0  0  0  0  0  0  0  0  0  0
    3.0791   -0.0436    0.0000 C   0  0  0  0  0  0  0  0  0  0  0  0
    2.3647    0.3689    0.0000 O   0  0  0  0  0  0  0  0  0  0  0  0
    3.0791   -2.5186    0.0000 C   0  0  0  0  0  0  0  0  0  0  0  0
    3.8996   -2.6048    0.0000 Cl  0  0  0  0  0  0  0  0  0  0  0  0
    3.0791   -3.3436    0.0000 C   0  0  0  0  0  0  0  0  0  0  0  0
    3.7936   -3.7561    0.0000 Cl  0  0  0  0  0  0  0  0  0  0  0  0
    2.3647   -3.7561    0.0000 C   0  0  0  0  0  0  0  0  0  0  0  0
    1.6502   -3.3436    0.0000 C   0  0  0  0  0  0  0  0  0  0  0  0
    0.9357   -3.7561    0.0000 Cl  0  0  0  0  0  0  0  0  0  0  0  0
  1  2  1  0  0  0  0
  3  2  1  0  0  0  0
  3  4  1  0  0  0  0
  4  5  1  0  0  0  0
  6  5  1  0  0  0  0
  6  7  1  0  0  0  0
  8  6  2  0  0  0  0
  8  9  1  0  0  0  0
 10  8  1  0  0  0  0
 11 10  2  0  0  0  0
 11 12  1  0  0  0  0
 13 11  1  0  0  0  0
  5 13  2  0  0  0  0
 13 14  1  0  0  0  0
 15  3  2  0  0  0  0
 15 16  1  0  0  0  0
 17 15  1  0  0  0  0
 17 18  1  0  0  0  0
 19 17  2  0  0  0  0
 20 19  1  0  0  0  0
  2 20  2  0  0  0  0
 20 21  1  0  0  0  0
M  END
> <ChemID>
100075

> <CAS>
70-30-4

> <Original_SMILES>
Oc1c(Cc2c(Cl)c(Cl)cc(Cl)c2O)c(Cl)c(Cl)cc1Cl

> <preferred_name>
Hexachlorophene

> <dsstox_substance_id>
DTXSID6020690

> <dsstox_compound_id>
DTXCID40690

> <qc_level>
DSSTox_Low

> <Canonical_QSARr>
OC1C(CC2C(Cl)=C(Cl)C=C(Cl)C=2O)=C(Cl)C(Cl)=CC=1Cl

> <InChI_Code_QSARr>
InChI=1S/C13H6Cl6O2/c14-6-2-8(16)12(20)4(10(6)18)1-5-11(19)7(15)3-9(17)13(5)21/h2-3,20-21H,1H2

> <InChI Key_QSARr>
ACGUYXCXAPNIKK-UHFFFAOYSA-N

> <Salt_Solvent>


> <Salt_Solvent_ID>
0

> <MPID>
100088

> <Tr_1_Tst_0>
1

> <Ready_Biodeg>
0.0

$$$$
Row72
  Mrv171c012251911052D          

  4  3  0  0  0  0            999 V2000
    2.1043   -0.5633    0.0000 O   0  0  0  0  0  0  0  0  0  0  0  0
    1.2793   -0.5633    0.0000 C   0  0  0  0  0  0  0  0  0  0  0  0
    0.8668    0.1512    0.0000 C   0  0  0  0  0  0  0  0  0  0  0  0
    0.0418    0.1512    0.0000 C   0  0  0  0  0  0  0  0  0  0  0  0
  1  2  1  0  0  0  0
  2  3  1  0  0  0  0
  3  4  1  0  0  0  0
M  END
> <ChemID>
100076

> <CAS>
71-23-8

> <Original_SMILES>
CCCO

> <preferred_name>
1-Propanol

> <dsstox_substance_id>
DTXSID2021739

> <dsstox_compound_id>
DTXCID001739

> <qc_level>
DSSTox_High

> <Canonical_QSARr>
CCCO

> <InChI_Code_QSARr>
InChI=1S/C3H8O/c1-2-3-4/h4H,2-3H2,1H3

> <InChI Key_QSARr>
BDERNNFJNOPAEC-UHFFFAOYSA-N

> <Salt_Solvent>


> <Salt_Solvent_ID>
0

> <MPID>
100089

> <Tr_1_Tst_0>
0

> <Ready_Biodeg>
1.0

$$$$
Row73
  Mrv171c012251911052D          

  5  4  0  0  0  0            999 V2000
    2.5848   -1.1044    0.0000 C   0  0  0  0  0  0  0  0  0  0  0  0
    2.1723   -0.3899    0.0000 C   0  0  0  0  0  0  0  0  0  0  0  0
    1.3473   -0.3899    0.0000 C   0  0  0  0  0  0  0  0  0  0  0  0
    0.9348    0.3245    0.0000 C   0  0  0  0  0  0  0  0  0  0  0  0
    0.1098    0.3245    0.0000 O   0  0  0  0  0  0  0  0  0  0  0  0
  1  2  1  0  0  0  0
  2  3  1  0  0  0  0
  3  4  1  0  0  0  0
  4  5  1  0  0  0  0
M  END
> <ChemID>
100077

> <CAS>
71-36-3

> <Original_SMILES>
CCCCO

> <preferred_name>
1-Butanol

> <dsstox_substance_id>
DTXSID1021740

> <dsstox_compound_id>
DTXCID701740

> <qc_level>
DSSTox_Low

> <Canonical_QSARr>
CCCCO

> <InChI_Code_QSARr>
InChI=1S/C4H10O/c1-2-3-4-5/h5H,2-4H2,1H3

> <InChI Key_QSARr>
LRHPLDYGYMQRHN-UHFFFAOYSA-N

> <Salt_Solvent>


> <Salt_Solvent_ID>
0

> <MPID>
100090

> <Tr_1_Tst_0>
1

> <Ready_Biodeg>
1.0

$$$$
Row74
  Mrv171c012251911052D          

  6  5  0  0  0  0            999 V2000
    0.0018   -0.4119    0.0000 C   0  0  0  0  0  0  0  0  0  0  0  0
    0.7163    0.0006    0.0000 C   0  0  0  0  0  0  0  0  0  0  0  0
    1.4307   -0.4119    0.0000 C   0  0  0  0  0  0  0  0  0  0  0  0
    2.1452    0.0006    0.0000 C   0  0  0  0  0  0  0  0  0  0  0  0
    2.8597   -0.4119    0.0000 C   0  0  0  0  0  0  0  0  0  0  0  0
    3.5741    0.0006    0.0000 O   0  0  0  0  0  0  0  0  0  0  0  0
  1  2  1  0  0  0  0
  2  3  1  0  0  0  0
  3  4  1  0  0  0  0
  4  5  1  0  0  0  0
  5  6  1  0  0  0  0
M  END
> <ChemID>
100078

> <CAS>
71-41-0

> <Original_SMILES>
CCCCCO

> <preferred_name>
1-Pentanol

> <dsstox_substance_id>
DTXSID6021741

> <dsstox_compound_id>
DTXCID101741

> <qc_level>
DSSTox_Low

> <Canonical_QSARr>
CCCCCO

> <InChI_Code_QSARr>
InChI=1S/C5H12O/c1-2-3-4-5-6/h6H,2-5H2,1H3

> <InChI Key_QSARr>
AMQJEAYHLZJPGS-UHFFFAOYSA-N

> <Salt_Solvent>


> <Salt_Solvent_ID>
0

> <MPID>
100091

> <Tr_1_Tst_0>
1

> <Ready_Biodeg>
1.0

$$$$
Row75
  Mrv171c012251911052D          

  6  6  0  0  0  0            999 V2000
    1.4289   -0.4125    0.0000 C   0  0  0  0  0  0  0  0  0  0  0  0
    0.7145    0.0000    0.0000 C   0  0  0  0  0  0  0  0  0  0  0  0
    0.0000   -0.4125    0.0000 C   0  0  0  0  0  0  0  0  0  0  0  0
    0.0000   -1.2375    0.0000 C   0  0  0  0  0  0  0  0  0  0  0  0
    0.7145   -1.6500    0.0000 C   0  0  0  0  0  0  0  0  0  0  0  0
    1.4289   -1.2375    0.0000 C   0  0  0  0  0  0  0  0  0  0  0  0
  2  1  1  0  0  0  0
  3  2  2  0  0  0  0
  4  3  1  0  0  0  0
  5  4  2  0  0  0  0
  6  5  1  0  0  0  0
  1  6  2  0  0  0  0
M  END
> <ChemID>
100079

> <CAS>
71-43-2

> <Original_SMILES>
c1ccccc1

> <preferred_name>
Benzene

> <dsstox_substance_id>
DTXSID3039242

> <dsstox_compound_id>
DTXCID20135

> <qc_level>
DSSTox_Low

> <Canonical_QSARr>
C1C=CC=CC=1

> <InChI_Code_QSARr>
InChI=1S/C6H6/c1-2-4-6-5-3-1/h1-6H

> <InChI Key_QSARr>
UHOVQNZJYSORNB-UHFFFAOYSA-N

> <Salt_Solvent>


> <Salt_Solvent_ID>
0

> <MPID>
100092

> <Tr_1_Tst_0>
1

> <Ready_Biodeg>
1.0

$$$$
Row76
  Mrv171c012251911052D          

  5  4  0  0  0  0            999 V2000
    0.8250   -1.6500    0.0000 C   0  0  0  0  0  0  0  0  0  0  0  0
    0.8250   -0.8250    0.0000 C   0  0  0  0  0  0  0  0  0  0  0  0
    0.8250    0.0000    0.0000 Cl  0  0  0  0  0  0  0  0  0  0  0  0
    1.6500   -0.8250    0.0000 Cl  0  0  0  0  0  0  0  0  0  0  0  0
    0.0000   -0.8250    0.0000 Cl  0  0  0  0  0  0  0  0  0  0  0  0
  1  2  1  0  0  0  0
  2  3  1  0  0  0  0
  2  4  1  0  0  0  0
  2  5  1  0  0  0  0
M  END
> <ChemID>
100080

> <CAS>
71-55-6

> <Original_SMILES>
CC(Cl)(Cl)Cl

> <preferred_name>
1,1,1-Trichloroethane

> <dsstox_substance_id>
DTXSID0021381

> <dsstox_compound_id>
DTXCID501381

> <qc_level>
DSSTox_Low

> <Canonical_QSARr>
CC(Cl)(Cl)Cl

> <InChI_Code_QSARr>
InChI=1S/C2H3Cl3/c1-2(3,4)5/h1H3

> <InChI Key_QSARr>
UOCLXMDMGBRAIB-UHFFFAOYSA-N

> <Salt_Solvent>


> <Salt_Solvent_ID>
0

> <MPID>
100093

> <Tr_1_Tst_0>
0

> <Ready_Biodeg>
0.0

$$$$
Row77
  Mrv171c012251911052D          

 10 10  0  0  0  0            999 V2000
    1.6467   -1.9515    0.0000 C   0  0  0  0  0  0  0  0  0  0  0  0
    1.6467   -1.1265    0.0000 C   0  0  0  0  0  0  0  0  0  0  0  0
    2.3611   -0.7140    0.0000 C   0  0  0  0  0  0  0  0  0  0  0  0
    2.3611    0.1110    0.0000 C   0  0  0  0  0  0  0  0  0  0  0  0
    1.6467    0.5235    0.0000 C   0  0  0  0  0  0  0  0  0  0  0  0
    1.6467    1.3485    0.0000 Cl  0  0  0  0  0  0  0  0  0  0  0  0
    0.9322    0.1110    0.0000 C   0  0  0  0  0  0  0  0  0  0  0  0
    0.9322   -0.7140    0.0000 C   0  0  0  0  0  0  0  0  0  0  0  0
    2.3611   -2.3640    0.0000 O   0  0  0  0  0  0  0  0  0  0  0  0
    0.9322   -2.3640    0.0000 O   0  0  0  0  0  0  0  0  0  0  0  0
  1  2  1  0  0  0  0
  3  2  1  0  0  0  0
  4  3  2  0  0  0  0
  5  4  1  0  0  0  0
  5  6  1  0  0  0  0
  7  5  2  0  0  0  0
  8  7  1  0  0  0  0
  2  8  2  0  0  0  0
  1  9  1  0  0  0  0
  1 10  2  0  0  0  0
M  END
> <ChemID>
100082

> <CAS>
74-11-3

> <Original_SMILES>
OC(=O)c1ccc(Cl)cc1

> <preferred_name>
4-Chlorobenzoic acid

> <dsstox_substance_id>
DTXSID9024772

> <dsstox_compound_id>
DTXCID704772

> <qc_level>
DSSTox_Low

> <Canonical_QSARr>
OC(=O)C1C=CC(Cl)=CC=1

> <InChI_Code_QSARr>
InChI=1S/C7H5ClO2/c8-6-3-1-5(2-4-6)7(9)10/h1-4H,(H,9,10)

> <InChI Key_QSARr>
XRHGYUZYPHTUJZ-UHFFFAOYSA-N

> <Salt_Solvent>


> <Salt_Solvent_ID>
0

> <MPID>
100095

> <Tr_1_Tst_0>
1

> <Ready_Biodeg>
0.0

$$$$
Row78
  Mrv171c012251911052D          

 20 22  0  0  0  0            999 V2000
    5.4261   -0.9068    0.0000 N   0  0  0  0  0  0  0  0  0  0  0  0
    5.4261   -1.7318    0.0000 C   0  0  0  0  0  0  0  0  0  0  0  0
    4.7117   -2.1443    0.0000 C   0  0  0  0  0  0  0  0  0  0  0  0
    4.7117   -2.9693    0.0000 C   0  0  0  0  0  0  0  0  0  0  0  0
    5.4261   -3.3818    0.0000 C   0  0  0  0  0  0  0  0  0  0  0  0
    6.1406   -2.9693    0.0000 C   0  0  0  0  0  0  0  0  0  0  0  0
    6.1406   -2.1443    0.0000 C   0  0  0  0  0  0  0  0  0  0  0  0
    4.7117   -0.4943    0.0000 C   0  0  0  0  0  0  0  0  0  0  0  0
    4.7117    0.3307    0.0000 C   0  0  0  0  0  0  0  0  0  0  0  0
    3.9972    0.7432    0.0000 C   0  0  0  0  0  0  0  0  0  0  0  0
    3.2827    0.3307    0.0000 C   0  0  0  0  0  0  0  0  0  0  0  0
    2.5683    0.7432    0.0000 N   0  0  0  0  0  0  0  0  0  0  0  0
    1.8538    0.3307    0.0000 C   0  0  0  0  0  0  0  0  0  0  0  0
    1.1393    0.7432    0.0000 C   0  0  0  0  0  0  0  0  0  0  0  0
    0.4248    0.3307    0.0000 C   0  0  0  0  0  0  0  0  0  0  0  0
    0.4248   -0.4943    0.0000 C   0  0  0  0  0  0  0  0  0  0  0  0
    1.1393   -0.9068    0.0000 C   0  0  0  0  0  0  0  0  0  0  0  0
    1.8538   -0.4943    0.0000 C   0  0  0  0  0  0  0  0  0  0  0  0
    3.2827   -0.4943    0.0000 C   0  0  0  0  0  0  0  0  0  0  0  0
    3.9972   -0.9068    0.0000 C   0  0  0  0  0  0  0  0  0  0  0  0
  1  2  1  0  0  0  0
  3  2  1  0  0  0  0
  4  3  2  0  0  0  0
  5  4  1  0  0  0  0
  6  5  2  0  0  0  0
  7  6  1  0  0  0  0
  2  7  2  0  0  0  0
  1  8  1  0  0  0  0
  9  8  1  0  0  0  0
 10  9  2  0  0  0  0
 11 10  1  0  0  0  0
 11 12  1  0  0  0  0
 12 13  1  0  0  0  0
 14 13  1  0  0  0  0
 15 14  2  0  0  0  0
 16 15  1  0  0  0  0
 17 16  2  0  0  0  0
 18 17  1  0  0  0  0
 13 18  2  0  0  0  0
 19 11  2  0  0  0  0
 20 19  1  0  0  0  0
  8 20  2  0  0  0  0
M  END
> <ChemID>
100083

> <CAS>
74-31-7

> <Original_SMILES>
c1cc(ccc1Nc1ccccc1)Nc1ccccc1

> <preferred_name>
N,N'-Diphenyl-p-phenylenediamine

> <dsstox_substance_id>
DTXSID9020538

> <dsstox_compound_id>
DTXCID50538

> <qc_level>
DSSTox_Low

> <Canonical_QSARr>
C1=CC(=CC=C1NC1C=CC=CC=1)NC1C=CC=CC=1

> <InChI_Code_QSARr>
InChI=1S/C18H16N2/c1-3-7-15(8-4-1)19-17-11-13-18(14-12-17)20-16-9-5-2-6-10-16/h1-14,19-20H

> <InChI Key_QSARr>
UTGQNNCQYDRXCH-UHFFFAOYSA-N

> <Salt_Solvent>


> <Salt_Solvent_ID>
0

> <MPID>
100096

> <Tr_1_Tst_0>
1

> <Ready_Biodeg>
0.0

$$$$
Row79
  Mrv171c012251911052D          

 12 11  0  0  0  0            999 V2000
    0.7001   -1.2257    0.0000 C   0  0  0  0  0  0  0  0  0  0  0  0
   -0.0144   -0.8132    0.0000 N   0  0  0  0  0  0  0  0  0  0  0  0
    1.4146   -0.8132    0.0000 N   0  0  0  0  0  0  0  0  0  0  0  0
    2.1290   -1.2257    0.0000 C   0  0  0  0  0  0  0  0  0  0  0  0
    2.8435   -0.8132    0.0000 C   0  0  0  0  0  0  0  0  0  0  0  0
    3.5580   -1.2257    0.0000 C   0  0  0  0  0  0  0  0  0  0  0  0
    4.2724   -0.8132    0.0000 C   0  0  0  0  0  0  0  0  0  0  0  0
    4.2724    0.0118    0.0000 N   0  0  0  0  0  0  0  0  0  0  0  0
    4.9869   -1.2257    0.0000 C   0  0  0  0  0  0  0  0  0  0  0  0
    5.7014   -0.8132    0.0000 O   0  0  0  0  0  0  0  0  0  0  0  0
    4.9869   -2.0507    0.0000 O   0  0  0  0  0  0  0  0  0  0  0  0
    0.7001   -2.0507    0.0000 N   0  0  0  0  0  0  0  0  0  0  0  0
  1  2  1  0  0  0  0
  1  3  1  0  0  0  0
  3  4  1  0  0  0  0
  4  5  1  0  0  0  0
  5  6  1  0  0  0  0
  6  7  1  0  0  0  0
  7  8  1  0  0  0  0
  7  9  1  0  0  0  0
  9 10  1  0  0  0  0
  9 11  2  0  0  0  0
  1 12  2  0  0  0  0
M  END
> <ChemID>
100084

> <CAS>
74-79-3

> <Original_SMILES>
NC(=N)NCCC[C@H](N)C(O)=O

> <preferred_name>
L-Arginine

> <dsstox_substance_id>
DTXSID6041056

> <dsstox_compound_id>
DTXCID4021056

> <qc_level>
DSSTox_Low

> <Canonical_QSARr>
NC(=N)NCCCC(N)C(O)=O

> <InChI_Code_QSARr>
InChI=1S/C6H14N4O2/c7-4(5(11)12)2-1-3-10-6(8)9/h4H,1-3,7H2,(H,11,12)(H4,8,9,10)

> <InChI Key_QSARr>
ODKSFYDXXFIFQN-UHFFFAOYSA-N

> <Salt_Solvent>


> <Salt_Solvent_ID>
0

> <MPID>
100097

> <Tr_1_Tst_0>
1

> <Ready_Biodeg>
1.0

$$$$
Row80
  Mrv171c012251911052D          

  2  1  0  0  0  0            999 V2000
    0.8250    0.0000    0.0000 C   0  0  0  0  0  0  0  0  0  0  0  0
    0.0000    0.0000    0.0000 Br  0  0  0  0  0  0  0  0  0  0  0  0
  1  2  1  0  0  0  0
M  END
> <ChemID>
100085

> <CAS>
74-83-9

> <Original_SMILES>
CBr

> <preferred_name>
Methyl bromide

> <dsstox_substance_id>
DTXSID8020832

> <dsstox_compound_id>
DTXCID00832

> <qc_level>
DSSTox_Low

> <Canonical_QSARr>
CBr

> <InChI_Code_QSARr>
InChI=1S/CH3Br/c1-2/h1H3

> <InChI Key_QSARr>
GZUXJHMPEANEGY-UHFFFAOYSA-N

> <Salt_Solvent>


> <Salt_Solvent_ID>
0

> <MPID>
100098

> <Tr_1_Tst_0>
0

> <Ready_Biodeg>
0.0

$$$$
Row81
  Mrv171c012251911052D          

  2  1  0  0  0  0            999 V2000
    0.8250    0.0000    0.0000 Cl  0  0  0  0  0  0  0  0  0  0  0  0
    0.0000    0.0000    0.0000 C   0  0  0  0  0  0  0  0  0  0  0  0
  1  2  1  0  0  0  0
M  END
> <ChemID>
100086

> <CAS>
74-87-3

> <Original_SMILES>
CCl

> <preferred_name>
Chloromethane

> <dsstox_substance_id>
DTXSID0021541

> <dsstox_compound_id>
DTXCID701541

> <qc_level>
DSSTox_Low

> <Canonical_QSARr>
CCl

> <InChI_Code_QSARr>
InChI=1S/CH3Cl/c1-2/h1H3

> <InChI Key_QSARr>
NEHMKBQYUWJMIP-UHFFFAOYSA-N

> <Salt_Solvent>


> <Salt_Solvent_ID>
0

> <MPID>
100099

> <Tr_1_Tst_0>
1

> <Ready_Biodeg>
0.0

$$$$
Row82
  Mrv171c012251911052D          

  2  1  0  0  0  0            999 V2000
    0.8250    0.0000    0.0000 N   0  0  0  0  0  0  0  0  0  0  0  0
    0.0000    0.0000    0.0000 C   0  0  0  0  0  0  0  0  0  0  0  0
  1  2  1  0  0  0  0
M  END
> <ChemID>
100087

> <CAS>
74-89-5

> <Original_SMILES>
CN

> <preferred_name>
Methylamine

> <dsstox_substance_id>
DTXSID7025683

> <dsstox_compound_id>
DTXCID305683

> <qc_level>
DSSTox_Low

> <Canonical_QSARr>
CN

> <InChI_Code_QSARr>
InChI=1S/CH5N/c1-2/h2H2,1H3

> <InChI Key_QSARr>
BAVYZALUXZFZLV-UHFFFAOYSA-N

> <Salt_Solvent>


> <Salt_Solvent_ID>
0

> <MPID>
100100

> <Tr_1_Tst_0>
1

> <Ready_Biodeg>
1.0

$$$$
Row83
  Mrv171c012251911052D          

  2  1  0  0  0  0            999 V2000
    0.8250    0.0000    0.0000 C   0  0  0  0  0  0  0  0  0  0  0  0
    0.0000    0.0000    0.0000 S   0  0  0  0  0  0  0  0  0  0  0  0
  1  2  1  0  0  0  0
M  END
> <ChemID>
100088

> <CAS>
74-93-1

> <Original_SMILES>
CS

> <preferred_name>
Methanethiol

> <dsstox_substance_id>
DTXSID5026382

> <dsstox_compound_id>
DTXCID406382

> <qc_level>
DSSTox_Low

> <Canonical_QSARr>
CS

> <InChI_Code_QSARr>
InChI=1S/CH4S/c1-2/h2H,1H3

> <InChI Key_QSARr>
LSDPWZHWYPCBBB-UHFFFAOYSA-N

> <Salt_Solvent>


> <Salt_Solvent_ID>
0

> <MPID>
100101

> <Tr_1_Tst_0>
1

> <Ready_Biodeg>
1.0

$$$$
Row84
  Mrv171c012251911052D          

  3  2  0  0  0  0            999 V2000
   -0.0002   -0.1377    0.0000 C   0  0  0  0  0  0  0  0  0  0  0  0
    0.7143   -0.5502    0.0000 C   0  0  0  0  0  0  0  0  0  0  0  0
    1.4287   -0.1377    0.0000 Br  0  0  0  0  0  0  0  0  0  0  0  0
  1  2  1  0  0  0  0
  2  3  1  0  0  0  0
M  END
> <ChemID>
100089

> <CAS>
74-96-4

> <Original_SMILES>
CCBr

> <preferred_name>
Bromoethane

> <dsstox_substance_id>
DTXSID6020199

> <dsstox_compound_id>
DTXCID60199

> <qc_level>
DSSTox_Low

> <Canonical_QSARr>
CCBr

> <InChI_Code_QSARr>
InChI=1S/C2H5Br/c1-2-3/h2H2,1H3

> <InChI Key_QSARr>
RDHPKYGYEGBMSE-UHFFFAOYSA-N

> <Salt_Solvent>


> <Salt_Solvent_ID>
0

> <MPID>
100102

> <Tr_1_Tst_0>
0

> <Ready_Biodeg>
0.0

$$$$
Row85
  Mrv171c012251911052D          

  3  2  0  0  0  0            999 V2000
   -0.0002   -0.1377    0.0000 Cl  0  0  0  0  0  0  0  0  0  0  0  0
    0.7143   -0.5502    0.0000 C   0  0  0  0  0  0  0  0  0  0  0  0
    1.4287   -0.1377    0.0000 Br  0  0  0  0  0  0  0  0  0  0  0  0
  1  2  1  0  0  0  0
  2  3  1  0  0  0  0
M  END
> <ChemID>
100090

> <CAS>
74-97-5

> <Original_SMILES>
ClCBr

> <preferred_name>
Bromochloromethane

> <dsstox_substance_id>
DTXSID4021503

> <dsstox_compound_id>
DTXCID301503

> <qc_level>
DSSTox_Low

> <Canonical_QSARr>
ClCBr

> <InChI_Code_QSARr>
InChI=1S/CH2BrCl/c2-1-3/h1H2

> <InChI Key_QSARr>
JPOXNPPZZKNXOV-UHFFFAOYSA-N

> <Salt_Solvent>


> <Salt_Solvent_ID>
0

> <MPID>
100103

> <Tr_1_Tst_0>
1

> <Ready_Biodeg>
0.0

$$$$
Row86
  Mrv171c012251911052D          

  3  2  0  0  0  0            999 V2000
    0.5473   -0.7528    0.0000 C   0  0  0  0  0  0  0  0  0  0  0  0
   -0.1672   -0.3403    0.0000 C   0  0  0  0  0  0  0  0  0  0  0  0
    1.2617   -0.3403    0.0000 C   0  0  0  0  0  0  0  0  0  0  0  0
  1  2  1  0  0  0  0
  1  3  1  0  0  0  0
M  END
> <ChemID>
100091

> <CAS>
74-98-6

> <Original_SMILES>
CCC

> <preferred_name>
Propane

> <dsstox_substance_id>
DTXSID5026386

> <dsstox_compound_id>
DTXCID006386

> <qc_level>
DSSTox_Low

> <Canonical_QSARr>
CCC

> <InChI_Code_QSARr>
InChI=1S/C3H8/c1-3-2/h3H2,1-2H3

> <InChI Key_QSARr>
ATUOYWHBWRKTHZ-UHFFFAOYSA-N

> <Salt_Solvent>


> <Salt_Solvent_ID>
0

> <MPID>
100104

> <Tr_1_Tst_0>
1

> <Ready_Biodeg>
1.0

$$$$
Row87
  Mrv171c012251911052D          

  3  2  0  0  0  0            999 V2000
   -0.0002   -0.1377    0.0000 C   0  0  0  0  0  0  0  0  0  0  0  0
    0.7143   -0.5502    0.0000 C   0  0  0  0  0  0  0  0  0  0  0  0
    1.4287   -0.1377    0.0000 Cl  0  0  0  0  0  0  0  0  0  0  0  0
  1  2  1  0  0  0  0
  2  3  1  0  0  0  0
M  END
> <ChemID>
100092

> <CAS>
75-00-3

> <Original_SMILES>
CCCl

> <preferred_name>
Chloroethane

> <dsstox_substance_id>
DTXSID1020302

> <dsstox_compound_id>
DTXCID90302

> <qc_level>
DSSTox_Low

> <Canonical_QSARr>
CCCl

> <InChI_Code_QSARr>
InChI=1S/C2H5Cl/c1-2-3/h2H2,1H3

> <InChI Key_QSARr>
HRYZWHHZPQKTII-UHFFFAOYSA-N

> <Salt_Solvent>


> <Salt_Solvent_ID>
0

> <MPID>
100105

> <Tr_1_Tst_0>
1

> <Ready_Biodeg>
0.0

$$$$
Row88
  Mrv171c012251911052D          

  3  2  0  0  0  0            999 V2000
    0.0000   -0.0000    0.0000 C   0  0  0  0  0  0  0  0  0  0  0  0
    0.8250   -0.0000    0.0000 C   0  0  0  0  0  0  0  0  0  0  0  0
    1.6500    0.0000    0.0000 N   0  0  0  0  0  0  0  0  0  0  0  0
  1  2  1  0  0  0  0
  2  3  3  0  0  0  0
M  END
> <ChemID>
100093

> <CAS>
75-05-8

> <Original_SMILES>
CC#N

> <preferred_name>
Acetonitrile

> <dsstox_substance_id>
DTXSID7020009

> <dsstox_compound_id>
DTXCID909

> <qc_level>
DSSTox_Low

> <Canonical_QSARr>
CC#N

> <InChI_Code_QSARr>
InChI=1S/C2H3N/c1-2-3/h1H3

> <InChI Key_QSARr>
WEVYAHXRMPXWCK-UHFFFAOYSA-N

> <Salt_Solvent>


> <Salt_Solvent_ID>
0

> <MPID>
100106

> <Tr_1_Tst_0>
0

> <Ready_Biodeg>
1.0

$$$$
Row89
  Mrv171c012251911052D          

  3  2  0  0  0  0            999 V2000
   -0.0002   -0.1377    0.0000 C   0  0  0  0  0  0  0  0  0  0  0  0
    0.7143   -0.5502    0.0000 C   0  0  0  0  0  0  0  0  0  0  0  0
    1.4287   -0.1377    0.0000 O   0  0  0  0  0  0  0  0  0  0  0  0
  1  2  1  0  0  0  0
  2  3  2  0  0  0  0
M  END
> <ChemID>
100094

> <CAS>
75-07-0

> <Original_SMILES>
CC=O

> <preferred_name>
Acetaldehyde

> <dsstox_substance_id>
DTXSID5039224

> <dsstox_compound_id>
DTXCID202

> <qc_level>
DSSTox_Low

> <Canonical_QSARr>
CC=O

> <InChI_Code_QSARr>
InChI=1S/C2H4O/c1-2-3/h2H,1H3

> <InChI Key_QSARr>
IKHGUXGNUITLKF-UHFFFAOYSA-N

> <Salt_Solvent>


> <Salt_Solvent_ID>
0

> <MPID>
100107

> <Tr_1_Tst_0>
1

> <Ready_Biodeg>
1.0

$$$$
Row90
  Mrv171c012251911052D          

  3  2  0  0  0  0            999 V2000
   -0.0002   -0.1377    0.0000 Cl  0  0  0  0  0  0  0  0  0  0  0  0
    0.7143   -0.5502    0.0000 C   0  0  0  0  0  0  0  0  0  0  0  0
    1.4287   -0.1377    0.0000 Cl  0  0  0  0  0  0  0  0  0  0  0  0
  1  2  1  0  0  0  0
  2  3  1  0  0  0  0
M  END
> <ChemID>
100095

> <CAS>
75-09-2

> <Original_SMILES>
ClCCl

> <preferred_name>
Dichloromethane

> <dsstox_substance_id>
DTXSID0020868

> <dsstox_compound_id>
DTXCID40868

> <qc_level>
DSSTox_Low

> <Canonical_QSARr>
ClCCl

> <InChI_Code_QSARr>
InChI=1S/CH2Cl2/c2-1-3/h1H2

> <InChI Key_QSARr>
YMWUJEATGCHHMB-UHFFFAOYSA-N

> <Salt_Solvent>


> <Salt_Solvent_ID>
0

> <MPID>
100108

> <Tr_1_Tst_0>
1

> <Ready_Biodeg>
0.0

$$$$
Row91
  Mrv171c012251911052D          

  3  2  0  0  0  0            999 V2000
    0.7143   -0.5502    0.0000 C   0  0  0  0  0  0  0  0  0  0  0  0
   -0.0002   -0.1377    0.0000 O   0  0  0  0  0  0  0  0  0  0  0  0
    1.4287   -0.1377    0.0000 N   0  0  0  0  0  0  0  0  0  0  0  0
  1  2  2  0  0  0  0
  1  3  1  0  0  0  0
M  END
> <ChemID>
100096

> <CAS>
75-12-7

> <Original_SMILES>
NC=O

> <preferred_name>
Formamide

> <dsstox_substance_id>
DTXSID8025337

> <dsstox_compound_id>
DTXCID805337

> <qc_level>
DSSTox_High

> <Canonical_QSARr>
NC=O

> <InChI_Code_QSARr>
InChI=1S/CH3NO/c2-1-3/h1H,(H2,2,3)

> <InChI Key_QSARr>
ZHNUHDYFZUAESO-UHFFFAOYSA-N

> <Salt_Solvent>


> <Salt_Solvent_ID>
0

> <MPID>
100109

> <Tr_1_Tst_0>
1

> <Ready_Biodeg>
1.0

$$$$
Row92
  Mrv171c012251911052D          

  4  3  0  0  0  0            999 V2000
    0.8246   -0.7143    0.0000 C   0  0  0  0  0  0  0  0  0  0  0  0
    1.2371    0.0002    0.0000 Br  0  0  0  0  0  0  0  0  0  0  0  0
    1.2371   -1.4287    0.0000 Br  0  0  0  0  0  0  0  0  0  0  0  0
   -0.0004   -0.7143    0.0000 Br  0  0  0  0  0  0  0  0  0  0  0  0
  1  2  1  0  0  0  0
  1  3  1  0  0  0  0
  1  4  1  0  0  0  0
M  END
> <ChemID>
100097

> <CAS>
75-25-2

> <Original_SMILES>
BrC(Br)Br

> <preferred_name>
Bromoform

> <dsstox_substance_id>
DTXSID1021374

> <dsstox_compound_id>
DTXCID401374

> <qc_level>
DSSTox_Low

> <Canonical_QSARr>
BrC(Br)Br

> <InChI_Code_QSARr>
InChI=1S/CHBr3/c2-1(3)4/h1H

> <InChI Key_QSARr>
DIKBFYAXUHHXCS-UHFFFAOYSA-N

> <Salt_Solvent>


> <Salt_Solvent_ID>
0

> <MPID>
100110

> <Tr_1_Tst_0>
0

> <Ready_Biodeg>
0.0

$$$$
Row93
  Mrv171c012251911052D          

  4  3  0  0  0  0            999 V2000
    1.1269    0.3035    0.0000 C   0  0  0  0  0  0  0  0  0  0  0  0
    0.7144   -0.4110    0.0000 C   0  0  0  0  0  0  0  0  0  0  0  0
    1.1269   -1.1254    0.0000 Br  0  0  0  0  0  0  0  0  0  0  0  0
   -0.1106   -0.4110    0.0000 C   0  0  0  0  0  0  0  0  0  0  0  0
  1  2  1  0  0  0  0
  2  3  1  0  0  0  0
  2  4  1  0  0  0  0
M  END
> <ChemID>
100098

> <CAS>
75-26-3

> <Original_SMILES>
CC(C)Br

> <preferred_name>
2-Bromopropane

> <dsstox_substance_id>
DTXSID7030197

> <dsstox_compound_id>
DTXCID5010197

> <qc_level>
DSSTox_Low

> <Canonical_QSARr>
CC(C)Br

> <InChI_Code_QSARr>
InChI=1S/C3H7Br/c1-3(2)4/h3H,1-2H3

> <InChI Key_QSARr>
NAMYKGVDVNBCFQ-UHFFFAOYSA-N

> <Salt_Solvent>


> <Salt_Solvent_ID>
0

> <MPID>
100111

> <Tr_1_Tst_0>
1

> <Ready_Biodeg>
1.0

$$$$
Row94
  Mrv171c012251911052D          

  4  3  0  0  0  0            999 V2000
    1.2371    0.0002    0.0000 Cl  0  0  0  0  0  0  0  0  0  0  0  0
    0.8246   -0.7143    0.0000 C   0  0  0  0  0  0  0  0  0  0  0  0
    1.2371   -1.4287    0.0000 Br  0  0  0  0  0  0  0  0  0  0  0  0
   -0.0004   -0.7143    0.0000 Cl  0  0  0  0  0  0  0  0  0  0  0  0
  1  2  1  0  0  0  0
  2  3  1  0  0  0  0
  2  4  1  0  0  0  0
M  END
> <ChemID>
100099

> <CAS>
75-27-4

> <Original_SMILES>
ClC(Cl)Br

> <preferred_name>
Bromodichloromethane

> <dsstox_substance_id>
DTXSID1020198

> <dsstox_compound_id>
DTXCID30198

> <qc_level>
DSSTox_Low

> <Canonical_QSARr>
ClC(Cl)Br

> <InChI_Code_QSARr>
InChI=1S/CHBrCl2/c2-1(3)4/h1H

> <InChI Key_QSARr>
FMWLUWPQPKEARP-UHFFFAOYSA-N

> <Salt_Solvent>


> <Salt_Solvent_ID>
0

> <MPID>
100112

> <Tr_1_Tst_0>
1

> <Ready_Biodeg>
1.0

$$$$
Row95
  Mrv171c012251911052D          

  4  3  0  0  0  0            999 V2000
    1.2371    0.0002    0.0000 C   0  0  0  0  0  0  0  0  0  0  0  0
    0.8246   -0.7143    0.0000 C   0  0  0  0  0  0  0  0  0  0  0  0
    1.2371   -1.4287    0.0000 Cl  0  0  0  0  0  0  0  0  0  0  0  0
   -0.0004   -0.7143    0.0000 Cl  0  0  0  0  0  0  0  0  0  0  0  0
  1  2  1  0  0  0  0
  2  3  1  0  0  0  0
  2  4  1  0  0  0  0
M  END
> <ChemID>
100100

> <CAS>
75-34-3

> <Original_SMILES>
CC(Cl)Cl

> <preferred_name>
1,1-Dichloroethane

> <dsstox_substance_id>
DTXSID1020437

> <dsstox_compound_id>
DTXCID10437

> <qc_level>
DSSTox_Low

> <Canonical_QSARr>
CC(Cl)Cl

> <InChI_Code_QSARr>
InChI=1S/C2H4Cl2/c1-2(3)4/h2H,1H3

> <InChI Key_QSARr>
SCYULBFZEHDVBN-UHFFFAOYSA-N

> <Salt_Solvent>


> <Salt_Solvent_ID>
0

> <MPID>
100113

> <Tr_1_Tst_0>
1

> <Ready_Biodeg>
0.0

$$$$
Row96
  Mrv171c012251911052D          

  4  3  0  0  0  0            999 V2000
    1.2371    0.0002    0.0000 C   0  0  0  0  0  0  0  0  0  0  0  0
    0.8246   -0.7143    0.0000 C   0  0  0  0  0  0  0  0  0  0  0  0
    1.2371   -1.4287    0.0000 Cl  0  0  0  0  0  0  0  0  0  0  0  0
   -0.0004   -0.7143    0.0000 Cl  0  0  0  0  0  0  0  0  0  0  0  0
  1  2  2  0  0  0  0
  2  3  1  0  0  0  0
  2  4  1  0  0  0  0
M  END
> <ChemID>
100101

> <CAS>
75-35-4

> <Original_SMILES>
C=C(Cl)Cl

> <preferred_name>
1,1-Dichloroethylene

> <dsstox_substance_id>
DTXSID8021438

> <dsstox_compound_id>
DTXCID001438

> <qc_level>
DSSTox_Low

> <Canonical_QSARr>
C=C(Cl)Cl

> <InChI_Code_QSARr>
InChI=1S/C2H2Cl2/c1-2(3)4/h1H2

> <InChI Key_QSARr>
LGXVIGDEPROXKC-UHFFFAOYSA-N

> <Salt_Solvent>


> <Salt_Solvent_ID>
0

> <MPID>
100114

> <Tr_1_Tst_0>
0

> <Ready_Biodeg>
0.0

$$$$
Row97
  Mrv171c012251911052D          

  4  3  0  0  0  0            999 V2000
    1.2371    0.0002    0.0000 F   0  0  0  0  0  0  0  0  0  0  0  0
    0.8246   -0.7143    0.0000 C   0  0  0  0  0  0  0  0  0  0  0  0
    1.2371   -1.4287    0.0000 Cl  0  0  0  0  0  0  0  0  0  0  0  0
   -0.0004   -0.7143    0.0000 F   0  0  0  0  0  0  0  0  0  0  0  0
  1  2  1  0  0  0  0
  2  3  1  0  0  0  0
  2  4  1  0  0  0  0
M  END
> <ChemID>
100102

> <CAS>
75-45-6

> <Original_SMILES>
FC(F)Cl

> <preferred_name>
Chlorodifluoromethane

> <dsstox_substance_id>
DTXSID6020301

> <dsstox_compound_id>
DTXCID60301

> <qc_level>
DSSTox_Low

> <Canonical_QSARr>
FC(F)Cl

> <InChI_Code_QSARr>
InChI=1S/CHClF2/c2-1(3)4/h1H

> <InChI Key_QSARr>
VOPWNXZWBYDODV-UHFFFAOYSA-N

> <Salt_Solvent>


> <Salt_Solvent_ID>
0

> <MPID>
100115

> <Tr_1_Tst_0>
1

> <Ready_Biodeg>
0.0

$$$$
Row98
  Mrv171c012251911052D          

  4  3  0  0  0  0            999 V2000
    0.8246   -0.7143    0.0000 N   0  0  0  0  0  0  0  0  0  0  0  0
    1.2371    0.0002    0.0000 C   0  0  0  0  0  0  0  0  0  0  0  0
    1.2371   -1.4287    0.0000 C   0  0  0  0  0  0  0  0  0  0  0  0
   -0.0004   -0.7143    0.0000 C   0  0  0  0  0  0  0  0  0  0  0  0
  1  2  1  0  0  0  0
  1  3  1  0  0  0  0
  1  4  1  0  0  0  0
M  END
> <ChemID>
100103

> <CAS>
75-50-3

> <Original_SMILES>
CN(C)C

> <preferred_name>
Trimethylamine

> <dsstox_substance_id>
DTXSID2026238

> <dsstox_compound_id>
DTXCID106238

> <qc_level>
DSSTox_Low

> <Canonical_QSARr>
CN(C)C

> <InChI_Code_QSARr>
InChI=1S/C3H9N/c1-4(2)3/h1-3H3

> <InChI Key_QSARr>
GETQZCLCWQTVFV-UHFFFAOYSA-N

> <Salt_Solvent>


> <Salt_Solvent_ID>
0

> <MPID>
100116

> <Tr_1_Tst_0>
1

> <Ready_Biodeg>
1.0

$$$$
Row99
  Mrv171c012251911052D          

  4  4  0  0  0  0            999 V2000
    1.4472    0.3108    0.0000 C   0  0  0  0  0  0  0  0  0  0  0  0
    1.4472   -0.5142    0.0000 C   0  0  0  0  0  0  0  0  0  0  0  0
    1.0347   -1.2286    0.0000 O   0  0  0  0  0  0  0  0  0  0  0  0
    1.8597   -1.2286    0.0000 C   0  0  0  0  0  0  0  0  0  0  0  0
  1  2  1  0  0  0  0
  3  2  1  0  0  0  0
  4  3  1  0  0  0  0
  2  4  1  0  0  0  0
M  END
> <ChemID>
100104

> <CAS>
75-56-9

> <Original_SMILES>
CC1CO1

> <preferred_name>
1,2-Propylene oxide

> <dsstox_substance_id>
DTXSID5021207

> <dsstox_compound_id>
DTXCID301207

> <qc_level>
DSSTox_High

> <Canonical_QSARr>
CC1CO1

> <InChI_Code_QSARr>
InChI=1S/C3H6O/c1-3-2-4-3/h3H,2H2,1H3

> <InChI Key_QSARr>
GOOHAUXETOMSMM-UHFFFAOYSA-N

> <Salt_Solvent>


> <Salt_Solvent_ID>
0

> <MPID>
100117

> <Tr_1_Tst_0>
1

> <Ready_Biodeg>
1.0

$$$$
Row100
  Mrv171c012251911052D          

  5  4  0  0  0  0            999 V2000
    0.8250   -0.8250    0.0000 C   0  0  0  0  0  0  0  0  0  0  0  0
    0.8250   -1.6500    0.0000 O   0  0  0  0  0  0  0  0  0  0  0  0
    0.8250    0.0000    0.0000 C   0  0  0  0  0  0  0  0  0  0  0  0
    1.6500   -0.8250    0.0000 C   0  0  0  0  0  0  0  0  0  0  0  0
    0.0000   -0.8250    0.0000 C   0  0  0  0  0  0  0  0  0  0  0  0
  1  2  1  0  0  0  0
  1  3  1  0  0  0  0
  1  4  1  0  0  0  0
  1  5  1  0  0  0  0
M  END
> <ChemID>
100105

> <CAS>
75-65-0

> <Original_SMILES>
CC(C)(C)O

> <preferred_name>
tert-Butyl alcohol

> <dsstox_substance_id>
DTXSID8020204

> <dsstox_compound_id>
DTXCID40204

> <qc_level>
DSSTox_Low

> <Canonical_QSARr>
CC(C)(C)O

> <InChI_Code_QSARr>
InChI=1S/C4H10O/c1-4(2,3)5/h5H,1-3H3

> <InChI Key_QSARr>
DKGAVHZHDRPRBM-UHFFFAOYSA-N

> <Salt_Solvent>


> <Salt_Solvent_ID>
0

> <MPID>
100118

> <Tr_1_Tst_0>
0

> <Ready_Biodeg>
0.0

$$$$
Row101
  Mrv171c012251911052D          

  5  4  0  0  0  0            999 V2000
    0.8250   -1.6500    0.0000 F   0  0  0  0  0  0  0  0  0  0  0  0
    0.8250   -0.8250    0.0000 C   0  0  0  0  0  0  0  0  0  0  0  0
    0.8250    0.0000    0.0000 Cl  0  0  0  0  0  0  0  0  0  0  0  0
    1.6500   -0.8250    0.0000 Cl  0  0  0  0  0  0  0  0  0  0  0  0
    0.0000   -0.8250    0.0000 F   0  0  0  0  0  0  0  0  0  0  0  0
  1  2  1  0  0  0  0
  2  3  1  0  0  0  0
  2  4  1  0  0  0  0
  2  5  1  0  0  0  0
M  END
> <ChemID>
100106

> <CAS>
75-71-8

> <Original_SMILES>
FC(F)(Cl)Cl

> <preferred_name>
Dichlorodifluoromethane

> <dsstox_substance_id>
DTXSID6020436

> <dsstox_compound_id>
DTXCID80436

> <qc_level>
DSSTox_Low

> <Canonical_QSARr>
FC(F)(Cl)Cl

> <InChI_Code_QSARr>
InChI=1S/CCl2F2/c2-1(3,4)5

> <InChI Key_QSARr>
PXBRQCKWGAHEHS-UHFFFAOYSA-N

> <Salt_Solvent>


> <Salt_Solvent_ID>
0

> <MPID>
100119

> <Tr_1_Tst_0>
1

> <Ready_Biodeg>
0.0

$$$$
Row102
  Mrv171c012251911052D          

  6  5  0  0  0  0            999 V2000
    1.5721   -1.5496    0.0000 C   0  0  0  0  0  0  0  0  0  0  0  0
    1.1596   -0.8351    0.0000 C   0  0  0  0  0  0  0  0  0  0  0  0
    1.8740   -0.4226    0.0000 C   0  0  0  0  0  0  0  0  0  0  0  0
    0.4451   -1.2476    0.0000 O   0  0  0  0  0  0  0  0  0  0  0  0
    0.7471   -0.1207    0.0000 C   0  0  0  0  0  0  0  0  0  0  0  0
   -0.0779   -0.1207    0.0000 C   0  0  0  0  0  0  0  0  0  0  0  0
  1  2  1  0  0  0  0
  2  3  1  0  0  0  0
  2  4  1  0  0  0  0
  2  5  1  0  0  0  0
  5  6  1  0  0  0  0
M  END
> <ChemID>
100107

> <CAS>
75-85-4

> <Original_SMILES>
CCC(C)(C)O

> <preferred_name>
2-Methyl-2-butanol

> <dsstox_substance_id>
DTXSID0041436

> <dsstox_compound_id>
DTXCID8021436

> <qc_level>
DSSTox_Low

> <Canonical_QSARr>
CCC(C)(C)O

> <InChI_Code_QSARr>
InChI=1S/C5H12O/c1-4-5(2,3)6/h6H,4H2,1-3H3

> <InChI Key_QSARr>
MSXVEPNJUHWQHW-UHFFFAOYSA-N

> <Salt_Solvent>


> <Salt_Solvent_ID>
0

> <MPID>
100120

> <Tr_1_Tst_0>
1

> <Ready_Biodeg>
0.0

$$$$
Row103
  Mrv171c012251911052D          

  6  5  0  0  0  0            999 V2000
    0.8229   -1.0975    0.0000 C   0  0  0  0  0  0  0  0  0  0  0  0
    0.8229   -1.9225    0.0000 C   0  0  0  0  0  0  0  0  0  0  0  0
    0.8229   -2.7475    0.0000 N   0  0  0  0  0  0  0  0  0  0  0  0
    0.8229   -0.2725    0.0000 O   0  0  0  0  0  0  0  0  0  0  0  0
    1.6479   -1.0975    0.0000 C   0  0  0  0  0  0  0  0  0  0  0  0
   -0.0021   -1.0975    0.0000 C   0  0  0  0  0  0  0  0  0  0  0  0
  1  2  1  0  0  0  0
  2  3  3  0  0  0  0
  1  4  1  0  0  0  0
  1  5  1  0  0  0  0
  1  6  1  0  0  0  0
M  END
> <ChemID>
100108

> <CAS>
75-86-5

> <Original_SMILES>
CC(C)(O)C#N

> <preferred_name>
2-Hydroxy-2-methylpropanenitrile

> <dsstox_substance_id>
DTXSID7025427

> <dsstox_compound_id>
DTXCID705427

> <qc_level>
DSSTox_Low

> <Canonical_QSARr>
CC(C)(O)C#N

> <InChI_Code_QSARr>
InChI=1S/C4H7NO/c1-4(2,6)3-5/h6H,1-2H3

> <InChI Key_QSARr>
MWFMGBPGAXYFAR-UHFFFAOYSA-N

> <Salt_Solvent>


> <Salt_Solvent_ID>
0

> <MPID>
100121

> <Tr_1_Tst_0>
1

> <Ready_Biodeg>
1.0

$$$$
Row104
  Mrv171c012251911052D          

  6  5  0  0  0  0            999 V2000
    0.3559   -1.7453    0.0000 O   0  0  0  0  0  0  0  0  0  0  0  0
    1.0703   -1.3328    0.0000 C   0  0  0  0  0  0  0  0  0  0  0  0
    1.0703   -0.5078    0.0000 C   0  0  0  0  0  0  0  0  0  0  0  0
    1.0703    0.3172    0.0000 Cl  0  0  0  0  0  0  0  0  0  0  0  0
    1.8953   -0.5078    0.0000 Cl  0  0  0  0  0  0  0  0  0  0  0  0
    0.2453   -0.5078    0.0000 Cl  0  0  0  0  0  0  0  0  0  0  0  0
  1  2  2  0  0  0  0
  2  3  1  0  0  0  0
  3  4  1  0  0  0  0
  3  5  1  0  0  0  0
  3  6  1  0  0  0  0
M  END
> <ChemID>
100109

> <CAS>
75-87-6

> <Original_SMILES>
O=CC(Cl)(Cl)Cl

> <preferred_name>
Chloral

> <dsstox_substance_id>
DTXSID7024744

> <dsstox_compound_id>
DTXCID604744

> <qc_level>
DSSTox_Low

> <Canonical_QSARr>
O=CC(Cl)(Cl)Cl

> <InChI_Code_QSARr>
InChI=1S/C2HCl3O/c3-2(4,5)1-6/h1H

> <InChI Key_QSARr>
HFFLGKNGCAIQMO-UHFFFAOYSA-N

> <Salt_Solvent>


> <Salt_Solvent_ID>
0

> <MPID>
100122

> <Tr_1_Tst_0>
0

> <Ready_Biodeg>
0.0

$$$$
Row105
  Mrv171c012251911052D          

  7  6  0  0  0  0            999 V2000
    1.1228   -1.5286    0.0000 C   0  0  0  0  0  0  0  0  0  0  0  0
    0.4084   -1.9411    0.0000 O   0  0  0  0  0  0  0  0  0  0  0  0
    1.8373   -1.9411    0.0000 O   0  0  0  0  0  0  0  0  0  0  0  0
    1.1228   -0.7036    0.0000 C   0  0  0  0  0  0  0  0  0  0  0  0
    1.1228    0.1214    0.0000 C   0  0  0  0  0  0  0  0  0  0  0  0
    1.9478   -0.7036    0.0000 C   0  0  0  0  0  0  0  0  0  0  0  0
    0.2978   -0.7036    0.0000 C   0  0  0  0  0  0  0  0  0  0  0  0
  1  2  2  0  0  0  0
  1  3  1  0  0  0  0
  1  4  1  0  0  0  0
  4  5  1  0  0  0  0
  4  6  1  0  0  0  0
  4  7  1  0  0  0  0
M  END
> <ChemID>
100110

> <CAS>
75-98-9

> <Original_SMILES>
CC(C)(C)C(O)=O

> <preferred_name>
2,2-Dimethylpropanoic acid

> <dsstox_substance_id>
DTXSID8026432

> <dsstox_compound_id>
DTXCID106432

> <qc_level>
DSSTox_Low

> <Canonical_QSARr>
CC(C)(C)C(O)=O

> <InChI_Code_QSARr>
InChI=1S/C5H10O2/c1-5(2,3)4(6)7/h1-3H3,(H,6,7)

> <InChI Key_QSARr>
IUGYQRQAERSCNH-UHFFFAOYSA-N

> <Salt_Solvent>


> <Salt_Solvent_ID>
0

> <MPID>
100123

> <Tr_1_Tst_0>
1

> <Ready_Biodeg>
0.0

$$$$
Row106
  Mrv171c012251911052D          

  7  6  0  0  0  0            999 V2000
    1.4143    0.1367    0.0000 Cl  0  0  0  0  0  0  0  0  0  0  0  0
    1.0018   -0.5777    0.0000 C   0  0  0  0  0  0  0  0  0  0  0  0
    0.2873   -0.1652    0.0000 Cl  0  0  0  0  0  0  0  0  0  0  0  0
    1.7163   -0.9902    0.0000 Cl  0  0  0  0  0  0  0  0  0  0  0  0
    0.5893   -1.2922    0.0000 C   0  0  0  0  0  0  0  0  0  0  0  0
    1.0018   -2.0067    0.0000 O   0  0  0  0  0  0  0  0  0  0  0  0
   -0.2357   -1.2922    0.0000 O   0  0  0  0  0  0  0  0  0  0  0  0
  1  2  1  0  0  0  0
  2  3  1  0  0  0  0
  2  4  1  0  0  0  0
  2  5  1  0  0  0  0
  5  6  1  0  0  0  0
  5  7  2  0  0  0  0
M  END
> <ChemID>
100111

> <CAS>
76-03-9

> <Original_SMILES>
OC(=O)C(Cl)(Cl)Cl

> <preferred_name>
Trichloroacetic acid

> <dsstox_substance_id>
DTXSID1021378

> <dsstox_compound_id>
DTXCID001378

> <qc_level>
DSSTox_High

> <Canonical_QSARr>
OC(=O)C(Cl)(Cl)Cl

> <InChI_Code_QSARr>
InChI=1S/C2HCl3O2/c3-2(4,5)1(6)7/h(H,6,7)

> <InChI Key_QSARr>
YNJBWRMUSHSURL-UHFFFAOYSA-N

> <Salt_Solvent>


> <Salt_Solvent_ID>
0

> <MPID>
100124

> <Tr_1_Tst_0>
1

> <Ready_Biodeg>
0.0

$$$$
Row107
  Mrv171c012251911052D          

  7  6  0  0  0  0            999 V2000
    1.4143    0.1367    0.0000 Cl  0  0  0  0  0  0  0  0  0  0  0  0
    1.0018   -0.5777    0.0000 C   0  0  0  0  0  0  0  0  0  0  0  0
    0.2873   -0.1652    0.0000 Cl  0  0  0  0  0  0  0  0  0  0  0  0
    1.7163   -0.9902    0.0000 Cl  0  0  0  0  0  0  0  0  0  0  0  0
    0.5893   -1.2922    0.0000 N   0  3  0  0  0  0  0  0  0  0  0  0
    1.0018   -2.0067    0.0000 O   0  5  0  0  0  0  0  0  0  0  0  0
   -0.2357   -1.2922    0.0000 O   0  0  0  0  0  0  0  0  0  0  0  0
  1  2  1  0  0  0  0
  2  3  1  0  0  0  0
  2  4  1  0  0  0  0
  2  5  1  0  0  0  0
  5  6  1  0  0  0  0
  5  7  2  0  0  0  0
M  CHG  2   5   1   6  -1
M  END
> <ChemID>
100112

> <CAS>
76-06-2

> <Original_SMILES>
[O-][N+](=O)C(Cl)(Cl)Cl

> <preferred_name>
Chloropicrin

> <dsstox_substance_id>
DTXSID0020315

> <dsstox_compound_id>
DTXCID00315

> <qc_level>
DSSTox_High

> <Canonical_QSARr>
[O-][N+](=O)C(Cl)(Cl)Cl

> <InChI_Code_QSARr>
InChI=1S/CCl3NO2/c2-1(3,4)5(6)7

> <InChI Key_QSARr>
LFHISGNCFUNFFM-UHFFFAOYSA-N

> <Salt_Solvent>


> <Salt_Solvent_ID>
0

> <MPID>
100125

> <Tr_1_Tst_0>
1

> <Ready_Biodeg>
0.0

$$$$
Row108
  Mrv171c012251911052D          

  8  7  0  0  0  0            999 V2000
    0.8232   -2.4725    0.0000 F   0  0  0  0  0  0  0  0  0  0  0  0
    0.8232   -1.6475    0.0000 C   0  0  0  0  0  0  0  0  0  0  0  0
    1.6482   -1.6475    0.0000 Cl  0  0  0  0  0  0  0  0  0  0  0  0
   -0.0018   -1.6475    0.0000 Cl  0  0  0  0  0  0  0  0  0  0  0  0
    0.8232   -0.8225    0.0000 C   0  0  0  0  0  0  0  0  0  0  0  0
    0.8232    0.0025    0.0000 Cl  0  0  0  0  0  0  0  0  0  0  0  0
    1.6482   -0.8225    0.0000 Cl  0  0  0  0  0  0  0  0  0  0  0  0
   -0.0018   -0.8225    0.0000 F   0  0  0  0  0  0  0  0  0  0  0  0
  1  2  1  0  0  0  0
  2  3  1  0  0  0  0
  2  4  1  0  0  0  0
  2  5  1  0  0  0  0
  5  6  1  0  0  0  0
  5  7  1  0  0  0  0
  5  8  1  0  0  0  0
M  END
> <ChemID>
100113

> <CAS>
76-12-0

> <Original_SMILES>
FC(Cl)(Cl)C(F)(Cl)Cl

> <preferred_name>
1,2-Difluoro-1,1,2,2-tetrachloroethane

> <dsstox_substance_id>
DTXSID5026091

> <dsstox_compound_id>
DTXCID706091

> <qc_level>
DSSTox_Low

> <Canonical_QSARr>
FC(Cl)(Cl)C(F)(Cl)Cl

> <InChI_Code_QSARr>
InChI=1S/C2Cl4F2/c3-1(4,7)2(5,6)8

> <InChI Key_QSARr>
UGCSPKPEHQEOSR-UHFFFAOYSA-N

> <Salt_Solvent>


> <Salt_Solvent_ID>
0

> <MPID>
100126

> <Tr_1_Tst_0>
0

> <Ready_Biodeg>
0.0

$$$$
Row109
  Mrv171c012251911052D          

  8  7  0  0  0  0            999 V2000
    0.8232   -1.6475    0.0000 C   0  0  0  0  0  0  0  0  0  0  0  0
    0.8232   -2.4725    0.0000 Cl  0  0  0  0  0  0  0  0  0  0  0  0
    1.6482   -1.6475    0.0000 F   0  0  0  0  0  0  0  0  0  0  0  0
   -0.0018   -1.6475    0.0000 F   0  0  0  0  0  0  0  0  0  0  0  0
    0.8232   -0.8225    0.0000 C   0  0  0  0  0  0  0  0  0  0  0  0
    0.8232    0.0025    0.0000 Cl  0  0  0  0  0  0  0  0  0  0  0  0
    1.6482   -0.8225    0.0000 Cl  0  0  0  0  0  0  0  0  0  0  0  0
   -0.0018   -0.8225    0.0000 F   0  0  0  0  0  0  0  0  0  0  0  0
  1  2  1  0  0  0  0
  1  3  1  0  0  0  0
  1  4  1  0  0  0  0
  1  5  1  0  0  0  0
  5  6  1  0  0  0  0
  5  7  1  0  0  0  0
  5  8  1  0  0  0  0
M  END
> <ChemID>
100114

> <CAS>
76-13-1

> <Original_SMILES>
FC(F)(Cl)C(F)(Cl)Cl

> <preferred_name>
1,1,2-Trichloro-1,2,2-trifluoroethane

> <dsstox_substance_id>
DTXSID6021377

> <dsstox_compound_id>
DTXCID601377

> <qc_level>
DSSTox_Low

> <Canonical_QSARr>
FC(F)(Cl)C(F)(Cl)Cl

> <InChI_Code_QSARr>
InChI=1S/C2Cl3F3/c3-1(4,6)2(5,7)8

> <InChI Key_QSARr>
AJDIZQLSFPQPEY-UHFFFAOYSA-N

> <Salt_Solvent>


> <Salt_Solvent_ID>
0

> <MPID>
100127

> <Tr_1_Tst_0>
1

> <Ready_Biodeg>
0.0

$$$$
Row110
  Mrv171c012251911052D          

 17 19  0  0  0  0            999 V2000
    1.4056   -1.2261    0.0000 C   0  0  0  0  0  0  0  0  0  0  0  0
    1.3880   -0.3679    0.0000 Cl  0  0  0  0  0  0  0  0  0  0  0  0
    2.0376   -1.5561    0.0000 C   0  0  0  0  0  0  0  0  0  0  0  0
    2.9047   -1.3837    0.0000 C   0  0  0  0  0  0  0  0  0  0  0  0
    3.1554   -0.5320    0.0000 Cl  0  0  0  0  0  0  0  0  0  0  0  0
    3.3896   -2.0511    0.0000 C   0  0  0  0  0  0  0  0  0  0  0  0
    2.9047   -2.7186    0.0000 C   0  0  0  0  0  0  0  0  0  0  0  0
    2.0376   -2.5461    0.0000 C   0  0  0  0  0  0  0  0  0  0  0  0
    1.4056   -2.8761    0.0000 C   0  0  0  0  0  0  0  0  0  0  0  0
    0.6911   -2.4636    0.0000 C   0  0  0  0  0  0  0  0  0  0  0  0
   -0.0477   -2.8895    0.0000 Cl  0  0  0  0  0  0  0  0  0  0  0  0
    0.6911   -1.6386    0.0000 C   0  0  0  0  0  0  0  0  0  0  0  0
   -0.0476   -1.2129    0.0000 Cl  0  0  0  0  0  0  0  0  0  0  0  0
    1.3926   -3.7347    0.0000 Cl  0  0  0  0  0  0  0  0  0  0  0  0
    1.6118   -2.0511    0.0000 C   0  0  0  0  0  0  0  0  0  0  0  0
    2.5556   -1.7741    0.0000 Cl  0  0  0  0  0  0  0  0  0  0  0  0
    2.5548   -2.3315    0.0000 Cl  0  0  0  0  0  0  0  0  0  0  0  0
  1  2  1  0  0  0  0
  3  1  1  0  0  0  0
  3  4  1  0  0  0  0
  4  5  1  0  0  0  0
  4  6  1  0  0  0  0
  6  7  2  0  0  0  0
  7  8  1  0  0  0  0
  8  3  1  0  0  0  0
  9  8  1  0  0  0  0
  9 10  1  0  0  0  0
 10 11  1  0  0  0  0
 10 12  2  0  0  0  0
 12  1  1  0  0  0  0
 12 13  1  0  0  0  0
  9 14  1  0  0  0  0
 15  9  1  0  0  0  0
  1 15  1  0  0  0  0
 15 16  1  0  0  0  0
 15 17  1  0  0  0  0
M  END
> <ChemID>
100115

> <CAS>
76-44-8

> <Original_SMILES>
ClC1(Cl)C2(Cl)C3C=CC(Cl)C3C1(Cl)C(Cl)=C2Cl

> <preferred_name>
Heptachlor

> <dsstox_substance_id>
DTXSID3020679

> <dsstox_compound_id>
DTXCID70679

> <qc_level>
DSSTox_Low

> <Canonical_QSARr>
ClC1(Cl)C2(Cl)C3C=CC(Cl)C3C1(Cl)C(Cl)=C2Cl

> <InChI_Code_QSARr>
InChI=1S/C10H5Cl7/c11-4-2-1-3-5(4)9(15)7(13)6(12)8(3,14)10(9,16)17/h1-5H

> <InChI Key_QSARr>
FRCCEHPWNOQAEU-UHFFFAOYSA-N

> <Salt_Solvent>


> <Salt_Solvent_ID>
0

> <MPID>
100128

> <Tr_1_Tst_0>
1

> <Ready_Biodeg>
0.0

$$$$
Row111
  Mrv171c012251911052D          

 20 22  0  0  0  0            999 V2000
    1.6832   -2.5143    0.0000 C   0  0  0  0  0  0  0  0  0  0  0  0
    0.8582   -2.5143    0.0000 Cl  0  0  0  0  0  0  0  0  0  0  0  0
    1.6832   -3.3393    0.0000 C   0  0  0  0  0  0  0  0  0  0  0  0
    0.9688   -3.7518    0.0000 C   0  0  0  0  0  0  0  0  0  0  0  0
    0.9688   -4.5768    0.0000 C   0  0  0  0  0  0  0  0  0  0  0  0
    1.6832   -4.9893    0.0000 C   0  0  0  0  0  0  0  0  0  0  0  0
    2.3977   -4.5768    0.0000 C   0  0  0  0  0  0  0  0  0  0  0  0
    2.3977   -3.7518    0.0000 C   0  0  0  0  0  0  0  0  0  0  0  0
    1.6832   -1.6893    0.0000 C   0  0  0  0  0  0  0  0  0  0  0  0
    2.3977   -1.2768    0.0000 C   0  0  0  0  0  0  0  0  0  0  0  0
    2.3977   -0.4518    0.0000 C   0  0  0  0  0  0  0  0  0  0  0  0
    1.6832   -0.0393    0.0000 C   0  0  0  0  0  0  0  0  0  0  0  0
    0.9688   -0.4518    0.0000 C   0  0  0  0  0  0  0  0  0  0  0  0
    0.9688   -1.2768    0.0000 C   0  0  0  0  0  0  0  0  0  0  0  0
    2.5082   -2.5143    0.0000 C   0  0  0  0  0  0  0  0  0  0  0  0
    2.9207   -3.2287    0.0000 C   0  0  0  0  0  0  0  0  0  0  0  0
    3.7457   -3.2287    0.0000 C   0  0  0  0  0  0  0  0  0  0  0  0
    4.1582   -2.5143    0.0000 C   0  0  0  0  0  0  0  0  0  0  0  0
    3.7457   -1.7998    0.0000 C   0  0  0  0  0  0  0  0  0  0  0  0
    2.9207   -1.7998    0.0000 C   0  0  0  0  0  0  0  0  0  0  0  0
  1  2  1  0  0  0  0
  1  3  1  0  0  0  0
  4  3  2  0  0  0  0
  5  4  1  0  0  0  0
  6  5  2  0  0  0  0
  7  6  1  0  0  0  0
  8  7  2  0  0  0  0
  3  8  1  0  0  0  0
  1  9  1  0  0  0  0
 10  9  2  0  0  0  0
 11 10  1  0  0  0  0
 12 11  2  0  0  0  0
 13 12  1  0  0  0  0
 14 13  2  0  0  0  0
  9 14  1  0  0  0  0
  1 15  1  0  0  0  0
 16 15  2  0  0  0  0
 17 16  1  0  0  0  0
 18 17  2  0  0  0  0
 19 18  1  0  0  0  0
 20 19  2  0  0  0  0
 15 20  1  0  0  0  0
M  END
> <ChemID>
100116

> <CAS>
76-83-5

> <Original_SMILES>
ClC(c1ccccc1)(c1ccccc1)c1ccccc1

> <preferred_name>
Trityl chloride

> <dsstox_substance_id>
DTXSID3052511

> <dsstox_compound_id>
DTXCID7031084

> <qc_level>
DSSTox_Low

> <Canonical_QSARr>
ClC(C1C=CC=CC=1)(C1C=CC=CC=1)C1C=CC=CC=1

> <InChI_Code_QSARr>
InChI=1S/C19H15Cl/c20-19(16-10-4-1-5-11-16,17-12-6-2-7-13-17)18-14-8-3-9-15-18/h1-15H

> <InChI Key_QSARr>
JBWKIWSBJXDJDT-UHFFFAOYSA-N

> <Salt_Solvent>


> <Salt_Solvent_ID>
0

> <MPID>
100129

> <Tr_1_Tst_0>
1

> <Ready_Biodeg>
0.0

$$$$
Row112
  Mrv171c012251911052D          

 20 22  0  0  0  0            999 V2000
    1.4073   -2.6096    0.0000 Si  0  0  0  0  0  0  0  0  0  0  0  0
    1.4073   -3.4346    0.0000 C   0  0  0  0  0  0  0  0  0  0  0  0
    0.6928   -3.8471    0.0000 C   0  0  0  0  0  0  0  0  0  0  0  0
    0.6928   -4.6721    0.0000 C   0  0  0  0  0  0  0  0  0  0  0  0
    1.4073   -5.0846    0.0000 C   0  0  0  0  0  0  0  0  0  0  0  0
    2.1218   -4.6721    0.0000 C   0  0  0  0  0  0  0  0  0  0  0  0
    2.1218   -3.8471    0.0000 C   0  0  0  0  0  0  0  0  0  0  0  0
    1.4073   -1.7846    0.0000 C   0  0  0  0  0  0  0  0  0  0  0  0
    2.1218   -1.3721    0.0000 C   0  0  0  0  0  0  0  0  0  0  0  0
    2.1218   -0.5471    0.0000 C   0  0  0  0  0  0  0  0  0  0  0  0
    1.4073   -0.1346    0.0000 C   0  0  0  0  0  0  0  0  0  0  0  0
    0.6928   -0.5471    0.0000 C   0  0  0  0  0  0  0  0  0  0  0  0
    0.6928   -1.3721    0.0000 C   0  0  0  0  0  0  0  0  0  0  0  0
    2.2323   -2.6096    0.0000 C   0  0  0  0  0  0  0  0  0  0  0  0
    2.6448   -3.3241    0.0000 C   0  0  0  0  0  0  0  0  0  0  0  0
    3.4698   -3.3241    0.0000 C   0  0  0  0  0  0  0  0  0  0  0  0
    3.8823   -2.6096    0.0000 C   0  0  0  0  0  0  0  0  0  0  0  0
    3.4698   -1.8951    0.0000 C   0  0  0  0  0  0  0  0  0  0  0  0
    2.6448   -1.8951    0.0000 C   0  0  0  0  0  0  0  0  0  0  0  0
    0.5823   -2.6096    0.0000 Cl  0  0  0  0  0  0  0  0  0  0  0  0
  1  2  1  0  0  0  0
  3  2  1  0  0  0  0
  4  3  2  0  0  0  0
  5  4  1  0  0  0  0
  6  5  2  0  0  0  0
  7  6  1  0  0  0  0
  2  7  2  0  0  0  0
  1  8  1  0  0  0  0
  9  8  1  0  0  0  0
 10  9  2  0  0  0  0
 11 10  1  0  0  0  0
 12 11  2  0  0  0  0
 13 12  1  0  0  0  0
  8 13  2  0  0  0  0
  1 14  1  0  0  0  0
 15 14  1  0  0  0  0
 16 15  2  0  0  0  0
 17 16  1  0  0  0  0
 18 17  2  0  0  0  0
 19 18  1  0  0  0  0
 14 19  2  0  0  0  0
  1 20  1  0  0  0  0
M  END
> <ChemID>
100117

> <CAS>
76-86-8

> <Original_SMILES>
Cl[Si](c1ccccc1)(c1ccccc1)c1ccccc1

> <preferred_name>


> <dsstox_substance_id>
DTXSID70870398

> <dsstox_compound_id>
DTXCID60818123

> <qc_level>


> <Canonical_QSARr>
Cl[Si](C1C=CC=CC=1)(C1C=CC=CC=1)C1C=CC=CC=1

> <InChI_Code_QSARr>
InChI=1S/C18H15ClSi/c19-20(16-10-4-1-5-11-16,17-12-6-2-7-13-17)18-14-8-3-9-15-18/h1-15H

> <InChI Key_QSARr>
MNKYQPOFRKPUAE-UHFFFAOYSA-N

> <Salt_Solvent>


> <Salt_Solvent_ID>
0

> <MPID>
100130

> <Tr_1_Tst_0>
0

> <Ready_Biodeg>
0.0

$$$$
Row113
  Mrv171c012251911052D          

 17 18  0  0  0  0            999 V2000
    1.0056   -1.2375    0.0000 C   0  0  0  0  0  0  0  0  0  0  0  0
    1.8306   -1.2375    0.0000 O   0  0  0  0  0  0  0  0  0  0  0  0
    0.1806   -1.2375    0.0000 C   0  0  0  0  0  0  0  0  0  0  0  0
   -0.2319   -0.5230    0.0000 O   0  0  0  0  0  0  0  0  0  0  0  0
   -0.2319   -1.9520    0.0000 O   0  0  0  0  0  0  0  0  0  0  0  0
    1.0056   -2.0625    0.0000 C   0  0  0  0  0  0  0  0  0  0  0  0
    0.2912   -2.4750    0.0000 C   0  0  0  0  0  0  0  0  0  0  0  0
    0.2912   -3.3000    0.0000 C   0  0  0  0  0  0  0  0  0  0  0  0
    1.0056   -3.7125    0.0000 C   0  0  0  0  0  0  0  0  0  0  0  0
    1.7201   -3.3000    0.0000 C   0  0  0  0  0  0  0  0  0  0  0  0
    1.7201   -2.4750    0.0000 C   0  0  0  0  0  0  0  0  0  0  0  0
    1.0056   -0.4125    0.0000 C   0  0  0  0  0  0  0  0  0  0  0  0
    1.7201    0.0000    0.0000 C   0  0  0  0  0  0  0  0  0  0  0  0
    1.7201    0.8250    0.0000 C   0  0  0  0  0  0  0  0  0  0  0  0
    1.0056    1.2375    0.0000 C   0  0  0  0  0  0  0  0  0  0  0  0
    0.2912    0.8250    0.0000 C   0  0  0  0  0  0  0  0  0  0  0  0
    0.2912    0.0000    0.0000 C   0  0  0  0  0  0  0  0  0  0  0  0
  1  2  1  0  0  0  0
  1  3  1  0  0  0  0
  3  4  1  0  0  0  0
  3  5  2  0  0  0  0
  1  6  1  0  0  0  0
  7  6  1  0  0  0  0
  8  7  2  0  0  0  0
  9  8  1  0  0  0  0
 10  9  2  0  0  0  0
 11 10  1  0  0  0  0
  6 11  2  0  0  0  0
  1 12  1  0  0  0  0
 13 12  1  0  0  0  0
 14 13  2  0  0  0  0
 15 14  1  0  0  0  0
 16 15  2  0  0  0  0
 17 16  1  0  0  0  0
 12 17  2  0  0  0  0
M  END
> <ChemID>
100119

> <CAS>
76-93-7

> <Original_SMILES>
OC(=O)C(O)(c1ccccc1)c1ccccc1

> <preferred_name>
Benzilic acid

> <dsstox_substance_id>
DTXSID0058805

> <dsstox_compound_id>
DTXCID9047837

> <qc_level>
Public_High

> <Canonical_QSARr>
OC(=O)C(O)(C1C=CC=CC=1)C1C=CC=CC=1

> <InChI_Code_QSARr>
InChI=1S/C14H12O3/c15-13(16)14(17,11-7-3-1-4-8-11)12-9-5-2-6-10-12/h1-10,17H,(H,15,16)

> <InChI Key_QSARr>
UKXSKSHDVLQNKG-UHFFFAOYSA-N

> <Salt_Solvent>


> <Salt_Solvent_ID>
0

> <MPID>
100131

> <Tr_1_Tst_0>
1

> <Ready_Biodeg>
0.0

$$$$
Row114
  Mrv171c012251911052D          

 24 27  0  0  0  0            999 V2000
    2.0294    0.1864    0.0000 O   0  0  0  0  0  0  0  0  0  0  0  0
    2.2843   -0.5982    0.0000 C   0  0  0  0  0  0  0  0  0  0  0  0
    3.0689   -0.8532    0.0000 C   0  0  0  0  0  0  0  0  0  0  0  0
    3.7834   -0.4407    0.0000 C   0  0  0  0  0  0  0  0  0  0  0  0
    4.4979   -0.8532    0.0000 C   0  0  0  0  0  0  0  0  0  0  0  0
    4.4979   -1.6782    0.0000 C   0  0  0  0  0  0  0  0  0  0  0  0
    3.7834   -2.0907    0.0000 C   0  0  0  0  0  0  0  0  0  0  0  0
    3.0689   -1.6782    0.0000 C   0  0  0  0  0  0  0  0  0  0  0  0
    2.2843   -1.9331    0.0000 C   0  0  0  0  0  0  0  0  0  0  0  0
    2.6199   -2.6868    0.0000 C   0  0  0  0  0  0  0  0  0  0  0  0
    2.1349   -3.3542    0.0000 C   0  0  0  0  0  0  0  0  0  0  0  0
    2.4705   -4.1079    0.0000 C   0  0  0  0  0  0  0  0  0  0  0  0
    3.2910   -4.1941    0.0000 C   0  0  0  0  0  0  0  0  0  0  0  0
    3.6265   -4.9478    0.0000 O   0  0  0  0  0  0  0  0  0  0  0  0
    3.7759   -3.5267    0.0000 C   0  0  0  0  0  0  0  0  0  0  0  0
    3.4403   -2.7730    0.0000 C   0  0  0  0  0  0  0  0  0  0  0  0
    1.5698   -2.3456    0.0000 C   0  0  0  0  0  0  0  0  0  0  0  0
    0.8554   -1.9331    0.0000 C   0  0  0  0  0  0  0  0  0  0  0  0
    0.1409   -2.3456    0.0000 C   0  0  0  0  0  0  0  0  0  0  0  0
    0.1409   -3.1706    0.0000 C   0  0  0  0  0  0  0  0  0  0  0  0
   -0.5736   -3.5831    0.0000 O   0  0  0  0  0  0  0  0  0  0  0  0
    0.8554   -3.5831    0.0000 C   0  0  0  0  0  0  0  0  0  0  0  0
    1.5698   -3.1706    0.0000 C   0  0  0  0  0  0  0  0  0  0  0  0
    1.7994   -1.2657    0.0000 O   0  0  0  0  0  0  0  0  0  0  0  0
  1  2  2  0  0  0  0
  3  2  1  0  0  0  0
  3  4  1  0  0  0  0
  4  5  2  0  0  0  0
  5  6  1  0  0  0  0
  6  7  2  0  0  0  0
  7  8  1  0  0  0  0
  8  3  2  0  0  0  0
  9  8  1  0  0  0  0
  9 10  1  0  0  0  0
 11 10  1  0  0  0  0
 12 11  2  0  0  0  0
 13 12  1  0  0  0  0
 13 14  1  0  0  0  0
 15 13  2  0  0  0  0
 16 15  1  0  0  0  0
 10 16  2  0  0  0  0
  9 17  1  0  0  0  0
 18 17  1  0  0  0  0
 19 18  2  0  0  0  0
 20 19  1  0  0  0  0
 20 21  1  0  0  0  0
 22 20  2  0  0  0  0
 23 22  1  0  0  0  0
 17 23  2  0  0  0  0
 24  9  1  0  0  0  0
  2 24  1  0  0  0  0
M  END
> <ChemID>
100120

> <CAS>
77-09-8

> <Original_SMILES>
Oc1ccc(cc1)C1(OC(=O)c2ccccc12)c1ccc(O)cc1

> <preferred_name>
Phenolphthalein

> <dsstox_substance_id>
DTXSID0021125

> <dsstox_compound_id>
DTXCID901125

> <qc_level>
DSSTox_Low

> <Canonical_QSARr>
OC1C=CC(=CC=1)C1(OC(=O)C2C=CC=CC1=2)C1C=CC(O)=CC=1

> <InChI_Code_QSARr>
InChI=1S/C20H14O4/c21-15-9-5-13(6-10-15)20(14-7-11-16(22)12-8-14)18-4-2-1-3-17(18)19(23)24-20/h1-12,21-22H

> <InChI Key_QSARr>
KJFMBFZCATUALV-UHFFFAOYSA-N

> <Salt_Solvent>


> <Salt_Solvent_ID>
0

> <MPID>
100132

> <Tr_1_Tst_0>
1

> <Ready_Biodeg>
0.0

$$$$
Row115
  Mrv171c012251911052D          

 11 11  0  0  0  0            999 V2000
    1.0414   -0.1130    0.0000 Cl  0  0  0  0  0  0  0  0  0  0  0  0
    1.5934   -0.7261    0.0000 C   0  0  0  0  0  0  0  0  0  0  0  0
    2.1454   -0.1130    0.0000 Cl  0  0  0  0  0  0  0  0  0  0  0  0
    0.9259   -1.2110    0.0000 C   0  0  0  0  0  0  0  0  0  0  0  0
    0.1413   -0.9561    0.0000 Cl  0  0  0  0  0  0  0  0  0  0  0  0
    1.1809   -1.9956    0.0000 C   0  0  0  0  0  0  0  0  0  0  0  0
    0.6960   -2.6631    0.0000 Cl  0  0  0  0  0  0  0  0  0  0  0  0
    2.0059   -1.9956    0.0000 C   0  0  0  0  0  0  0  0  0  0  0  0
    2.4908   -2.6631    0.0000 Cl  0  0  0  0  0  0  0  0  0  0  0  0
    2.2608   -1.2110    0.0000 C   0  0  0  0  0  0  0  0  0  0  0  0
    3.0454   -0.9561    0.0000 Cl  0  0  0  0  0  0  0  0  0  0  0  0
  1  2  1  0  0  0  0
  2  3  1  0  0  0  0
  4  2  1  0  0  0  0
  4  5  1  0  0  0  0
  6  4  2  0  0  0  0
  6  7  1  0  0  0  0
  8  6  1  0  0  0  0
  8  9  1  0  0  0  0
 10  8  2  0  0  0  0
  2 10  1  0  0  0  0
 10 11  1  0  0  0  0
M  END
> <ChemID>
100121

> <CAS>
77-47-4

> <Original_SMILES>
ClC1(Cl)C(Cl)=C(Cl)C(Cl)=C1Cl

> <preferred_name>
Hexachlorocyclopentadiene

> <dsstox_substance_id>
DTXSID2020688

> <dsstox_compound_id>
DTXCID60688

> <qc_level>
DSSTox_Low

> <Canonical_QSARr>
ClC1(Cl)C(Cl)=C(Cl)C(Cl)=C1Cl

> <InChI_Code_QSARr>
InChI=1S/C5Cl6/c6-1-2(7)4(9)5(10,11)3(1)8

> <InChI Key_QSARr>
VUNCWTMEJYMOOR-UHFFFAOYSA-N

> <Salt_Solvent>


> <Salt_Solvent_ID>
0

> <MPID>
100133

> <Tr_1_Tst_0>
1

> <Ready_Biodeg>
0.0

$$$$
Row116
  Mrv171c012251911052D          

 15 14  0  0  0  0            999 V2000
    1.5863   -0.2909    0.0000 C   0  0  0  0  0  0  0  0  0  0  0  0
    1.9988    0.4236    0.0000 C   0  0  0  0  0  0  0  0  0  0  0  0
    1.5863    1.1381    0.0000 C   0  0  0  0  0  0  0  0  0  0  0  0
    2.8238    0.4236    0.0000 C   0  0  0  0  0  0  0  0  0  0  0  0
    1.9988   -1.0053    0.0000 O   0  0  0  0  0  0  0  0  0  0  0  0
    1.5863   -1.7198    0.0000 C   0  0  0  0  0  0  0  0  0  0  0  0
    1.9988   -2.4343    0.0000 C   0  0  0  0  0  0  0  0  0  0  0  0
    1.2844   -2.8468    0.0000 C   0  0  0  0  0  0  0  0  0  0  0  0
    2.7133   -2.0218    0.0000 C   0  0  0  0  0  0  0  0  0  0  0  0
    2.4113   -3.1488    0.0000 C   0  0  0  0  0  0  0  0  0  0  0  0
    3.2363   -3.1488    0.0000 O   0  0  0  0  0  0  0  0  0  0  0  0
    1.9988   -3.8632    0.0000 C   0  0  0  0  0  0  0  0  0  0  0  0
    2.4113   -4.5777    0.0000 C   0  0  0  0  0  0  0  0  0  0  0  0
    1.1738   -3.8632    0.0000 C   0  0  0  0  0  0  0  0  0  0  0  0
    0.7613   -0.2909    0.0000 O   0  0  0  0  0  0  0  0  0  0  0  0
  1  2  1  0  0  0  0
  2  3  1  0  0  0  0
  2  4  1  0  0  0  0
  1  5  1  0  0  0  0
  5  6  1  0  0  0  0
  6  7  1  0  0  0  0
  7  8  1  0  0  0  0
  7  9  1  0  0  0  0
  7 10  1  0  0  0  0
 10 11  1  0  0  0  0
 10 12  1  0  0  0  0
 12 13  1  0  0  0  0
 12 14  1  0  0  0  0
  1 15  2  0  0  0  0
M  END
> <ChemID>
100123

> <CAS>
77-68-9

> <Original_SMILES>
CC(C)C(=O)OCC(C)(C)C(O)C(C)C

> <preferred_name>


> <dsstox_substance_id>
DTXSID10872295

> <dsstox_compound_id>
DTXCID607857

> <qc_level>


> <Canonical_QSARr>
CC(C)C(=O)OCC(C)(C)C(O)C(C)C

> <InChI_Code_QSARr>
InChI=1S/C12H24O3/c1-8(2)10(13)12(5,6)7-15-11(14)9(3)4/h8-10,13H,7H2,1-6H3

> <InChI Key_QSARr>
DAFHKNAQFPVRKR-UHFFFAOYSA-N

> <Salt_Solvent>


> <Salt_Solvent_ID>
0

> <MPID>
100134

> <Tr_1_Tst_0>
0

> <Ready_Biodeg>
1.0

$$$$
Row117
  Mrv171c012251911052D          

 10 12  0  0  0  0            999 V2000
    1.8287   -0.9523    0.0000 C   0  0  0  0  0  0  0  0  0  0  0  0
    2.6133   -0.6974    0.0000 C   0  0  0  0  0  0  0  0  0  0  0  0
    3.0982   -1.3648    0.0000 C   0  0  0  0  0  0  0  0  0  0  0  0
    2.6133   -2.0323    0.0000 C   0  0  0  0  0  0  0  0  0  0  0  0
    1.8287   -1.7773    0.0000 C   0  0  0  0  0  0  0  0  0  0  0  0
    1.1142   -2.1898    0.0000 C   0  0  0  0  0  0  0  0  0  0  0  0
    0.3997   -1.7773    0.0000 C   0  0  0  0  0  0  0  0  0  0  0  0
    0.3997   -0.9523    0.0000 C   0  0  0  0  0  0  0  0  0  0  0  0
    1.1142   -0.5398    0.0000 C   0  0  0  0  0  0  0  0  0  0  0  0
    1.3205   -1.3648    0.0000 C   0  0  0  0  0  0  0  0  0  0  0  0
  2  1  1  0  0  0  0
  3  2  2  0  0  0  0
  4  3  1  0  0  0  0
  5  4  1  0  0  0  0
  5  1  1  0  0  0  0
  6  5  1  0  0  0  0
  6  7  1  0  0  0  0
  7  8  2  0  0  0  0
  8  9  1  0  0  0  0
  1  9  1  0  0  0  0
  9 10  1  0  0  0  0
 10  6  1  0  0  0  0
M  END
> <ChemID>
100124

> <CAS>
77-73-6

> <Original_SMILES>
C1C=CC2C3CC(C=C3)C21

> <preferred_name>
Dicyclopentadiene

> <dsstox_substance_id>
DTXSID5025023

> <dsstox_compound_id>
DTXCID305023

> <qc_level>
DSSTox_Low

> <Canonical_QSARr>
C1C=CC2C3CC(C=C3)C21

> <InChI_Code_QSARr>
InChI=1S/C10H12/c1-2-9-7-4-5-8(6-7)10(9)3-1/h1-2,4-5,7-10H,3,6H2

> <InChI Key_QSARr>
HECLRDQVFMWTQS-UHFFFAOYSA-N

> <Salt_Solvent>


> <Salt_Solvent_ID>
0

> <MPID>
100135

> <Tr_1_Tst_0>
1

> <Ready_Biodeg>
0.0

$$$$
Row118
  Mrv171c012251911052D          

 28 27  0  0  0  0            999 V2000
    3.5735   -1.9872    0.0000 C   0  0  0  0  0  0  0  0  0  0  0  0
    3.1610   -1.2728    0.0000 C   0  0  0  0  0  0  0  0  0  0  0  0
    3.5735   -0.5583    0.0000 C   0  0  0  0  0  0  0  0  0  0  0  0
    3.1610    0.1562    0.0000 O   0  0  0  0  0  0  0  0  0  0  0  0
    3.5735    0.8707    0.0000 C   0  0  0  0  0  0  0  0  0  0  0  0
    3.1610    1.5851    0.0000 C   0  0  0  0  0  0  0  0  0  0  0  0
    3.5735    2.2996    0.0000 C   0  0  0  0  0  0  0  0  0  0  0  0
    3.1610    3.0141    0.0000 C   0  0  0  0  0  0  0  0  0  0  0  0
    4.3985   -0.5583    0.0000 O   0  0  0  0  0  0  0  0  0  0  0  0
    2.8590   -2.3997    0.0000 O   0  0  0  0  0  0  0  0  0  0  0  0
    2.1446   -1.9872    0.0000 C   0  0  0  0  0  0  0  0  0  0  0  0
    1.4301   -2.3997    0.0000 O   0  0  0  0  0  0  0  0  0  0  0  0
    2.1446   -1.1622    0.0000 C   0  0  0  0  0  0  0  0  0  0  0  0
    4.2880   -1.5747    0.0000 C   0  0  0  0  0  0  0  0  0  0  0  0
    5.0025   -1.9872    0.0000 C   0  0  0  0  0  0  0  0  0  0  0  0
    5.0025   -2.8122    0.0000 O   0  0  0  0  0  0  0  0  0  0  0  0
    5.7169   -1.5747    0.0000 O   0  0  0  0  0  0  0  0  0  0  0  0
    6.4314   -1.9872    0.0000 C   0  0  0  0  0  0  0  0  0  0  0  0
    7.1459   -1.5747    0.0000 C   0  0  0  0  0  0  0  0  0  0  0  0
    7.8603   -1.9872    0.0000 C   0  0  0  0  0  0  0  0  0  0  0  0
    8.5748   -1.5747    0.0000 C   0  0  0  0  0  0  0  0  0  0  0  0
    3.9860   -2.7017    0.0000 C   0  0  0  0  0  0  0  0  0  0  0  0
    4.6535   -3.1866    0.0000 O   0  0  0  0  0  0  0  0  0  0  0  0
    3.5735   -3.4162    0.0000 O   0  0  0  0  0  0  0  0  0  0  0  0
    3.9860   -4.1306    0.0000 C   0  0  0  0  0  0  0  0  0  0  0  0
    3.5735   -4.8451    0.0000 C   0  0  0  0  0  0  0  0  0  0  0  0
    3.9860   -5.5596    0.0000 C   0  0  0  0  0  0  0  0  0  0  0  0
    3.5735   -6.2741    0.0000 C   0  0  0  0  0  0  0  0  0  0  0  0
  1  2  1  0  0  0  0
  2  3  1  0  0  0  0
  3  4  1  0  0  0  0
  4  5  1  0  0  0  0
  5  6  1  0  0  0  0
  6  7  1  0  0  0  0
  7  8  1  0  0  0  0
  3  9  2  0  0  0  0
  1 10  1  0  0  0  0
 10 11  1  0  0  0  0
 11 12  2  0  0  0  0
 11 13  1  0  0  0  0
  1 14  1  0  0  0  0
 14 15  1  0  0  0  0
 15 16  2  0  0  0  0
 15 17  1  0  0  0  0
 17 18  1  0  0  0  0
 18 19  1  0  0  0  0
 19 20  1  0  0  0  0
 20 21  1  0  0  0  0
  1 22  1  0  0  0  0
 22 23  2  0  0  0  0
 22 24  1  0  0  0  0
 24 25  1  0  0  0  0
 25 26  1  0  0  0  0
 26 27  1  0  0  0  0
 27 28  1  0  0  0  0
M  END
> <ChemID>
100125

> <CAS>
77-90-7

> <Original_SMILES>
CC(=O)OC(CC(=O)OCCCC)(CC(=O)OCCCC)C(=O)OCCCC

> <preferred_name>
Acetyl tributyl citrate

> <dsstox_substance_id>
DTXSID2026446

> <dsstox_compound_id>
DTXCID006446

> <qc_level>
DSSTox_Low

> <Canonical_QSARr>
CC(=O)OC(CC(=O)OCCCC)(CC(=O)OCCCC)C(=O)OCCCC

> <InChI_Code_QSARr>
InChI=1S/C20H34O8/c1-5-8-11-25-17(22)14-20(28-16(4)21,19(24)27-13-10-7-3)15-18(23)26-12-9-6-2/h5-15H2,1-4H3

> <InChI Key_QSARr>
QZCLKYGREBVARF-UHFFFAOYSA-N

> <Salt_Solvent>


> <Salt_Solvent_ID>
0

> <MPID>
100136

> <Tr_1_Tst_0>
1

> <Ready_Biodeg>
1.0

$$$$
Row119
  Mrv171c012251911052D          

 13 12  0  0  0  0            999 V2000
    1.0267   -1.8702    0.0000 O   0  0  0  0  0  0  0  0  0  0  0  0
    1.7411   -1.4577    0.0000 C   0  0  0  0  0  0  0  0  0  0  0  0
    2.4556   -1.0452    0.0000 C   0  0  0  0  0  0  0  0  0  0  0  0
    2.4556   -0.2202    0.0000 O   0  0  0  0  0  0  0  0  0  0  0  0
    3.1701   -1.4577    0.0000 O   0  0  0  0  0  0  0  0  0  0  0  0
    1.3286   -0.7433    0.0000 C   0  0  0  0  0  0  0  0  0  0  0  0
    0.5036   -0.7433    0.0000 C   0  0  0  0  0  0  0  0  0  0  0  0
    0.0911   -1.4577    0.0000 O   0  0  0  0  0  0  0  0  0  0  0  0
    0.0911   -0.0288    0.0000 O   0  0  0  0  0  0  0  0  0  0  0  0
    2.1536   -2.1722    0.0000 C   0  0  0  0  0  0  0  0  0  0  0  0
    1.7411   -2.8867    0.0000 C   0  0  0  0  0  0  0  0  0  0  0  0
    2.1536   -3.6012    0.0000 O   0  0  0  0  0  0  0  0  0  0  0  0
    0.9161   -2.8867    0.0000 O   0  0  0  0  0  0  0  0  0  0  0  0
  1  2  1  0  0  0  0
  2  3  1  0  0  0  0
  3  4  1  0  0  0  0
  3  5  2  0  0  0  0
  2  6  1  0  0  0  0
  6  7  1  0  0  0  0
  7  8  1  0  0  0  0
  7  9  2  0  0  0  0
  2 10  1  0  0  0  0
 10 11  1  0  0  0  0
 11 12  1  0  0  0  0
 11 13  2  0  0  0  0
M  END
> <ChemID>
100126

> <CAS>
77-92-9

> <Original_SMILES>
OC(=O)C(O)(CC(O)=O)CC(O)=O

> <preferred_name>
Citric acid

> <dsstox_substance_id>
DTXSID3020332

> <dsstox_compound_id>
DTXCID50332

> <qc_level>
DSSTox_High

> <Canonical_QSARr>
OC(=O)C(O)(CC(O)=O)CC(O)=O

> <InChI_Code_QSARr>
InChI=1S/C6H8O7/c7-3(8)1-6(13,5(11)12)2-4(9)10/h13H,1-2H2,(H,7,8)(H,9,10)(H,11,12)

> <InChI Key_QSARr>
KRKNYBCHXYNGOX-UHFFFAOYSA-N

> <Salt_Solvent>


> <Salt_Solvent_ID>
0

> <MPID>
100137

> <Tr_1_Tst_0>
1

> <Ready_Biodeg>
1.0

$$$$
Row120
  Mrv171c012251911052D          

  9  8  0  0  0  0            999 V2000
    2.1382   -1.2848    0.0000 C   0  0  0  0  0  0  0  0  0  0  0  0
    2.8527   -0.8723    0.0000 O   0  0  0  0  0  0  0  0  0  0  0  0
    1.4237   -0.8723    0.0000 C   0  0  0  0  0  0  0  0  0  0  0  0
    0.7093   -0.4598    0.0000 C   0  0  0  0  0  0  0  0  0  0  0  0
   -0.0052   -0.8723    0.0000 O   0  0  0  0  0  0  0  0  0  0  0  0
    1.8362   -0.1578    0.0000 C   0  0  0  0  0  0  0  0  0  0  0  0
    1.4237    0.5567    0.0000 C   0  0  0  0  0  0  0  0  0  0  0  0
    1.0112   -1.5867    0.0000 C   0  0  0  0  0  0  0  0  0  0  0  0
    0.1862   -1.5867    0.0000 O   0  0  0  0  0  0  0  0  0  0  0  0
  1  2  1  0  0  0  0
  1  3  1  0  0  0  0
  3  4  1  0  0  0  0
  4  5  1  0  0  0  0
  3  6  1  0  0  0  0
  6  7  1  0  0  0  0
  3  8  1  0  0  0  0
  8  9  1  0  0  0  0
M  END
> <ChemID>
100127

> <CAS>
77-99-6

> <Original_SMILES>
CCC(CO)(CO)CO

> <preferred_name>
2-Ethyl-2-(hydroxymethyl)-1,3-propanediol

> <dsstox_substance_id>
DTXSID2026448

> <dsstox_compound_id>
DTXCID806448

> <qc_level>
DSSTox_Low

> <Canonical_QSARr>
CCC(CO)(CO)CO

> <InChI_Code_QSARr>
InChI=1S/C6H14O3/c1-2-6(3-7,4-8)5-9/h7-9H,2-5H2,1H3

> <InChI Key_QSARr>
ZJCCRDAZUWHFQH-UHFFFAOYSA-N

> <Salt_Solvent>


> <Salt_Solvent_ID>
0

> <MPID>
100138

> <Tr_1_Tst_0>
0

> <Ready_Biodeg>
0.0

$$$$
Row121
  Mrv171c012251911052D          

 26 28  0  0  0  0            999 V2000
    2.4278   -1.8185    0.0000 P   0  0  0  0  0  0  0  0  0  0  0  0
    2.8403   -2.5330    0.0000 O   0  0  0  0  0  0  0  0  0  0  0  0
    3.1423   -1.4060    0.0000 O   0  0  0  0  0  0  0  0  0  0  0  0
    3.8568   -1.8185    0.0000 C   0  0  0  0  0  0  0  0  0  0  0  0
    3.8568   -2.6435    0.0000 C   0  0  0  0  0  0  0  0  0  0  0  0
    4.5713   -3.0560    0.0000 C   0  0  0  0  0  0  0  0  0  0  0  0
    5.2857   -2.6435    0.0000 C   0  0  0  0  0  0  0  0  0  0  0  0
    5.2857   -1.8185    0.0000 C   0  0  0  0  0  0  0  0  0  0  0  0
    4.5713   -1.4060    0.0000 C   0  0  0  0  0  0  0  0  0  0  0  0
    4.5713   -0.5810    0.0000 C   0  0  0  0  0  0  0  0  0  0  0  0
    1.7134   -2.2310    0.0000 O   0  0  0  0  0  0  0  0  0  0  0  0
    1.7134   -3.0560    0.0000 C   0  0  0  0  0  0  0  0  0  0  0  0
    0.9989   -3.4685    0.0000 C   0  0  0  0  0  0  0  0  0  0  0  0
    0.9989   -4.2935    0.0000 C   0  0  0  0  0  0  0  0  0  0  0  0
    1.7134   -4.7060    0.0000 C   0  0  0  0  0  0  0  0  0  0  0  0
    2.4278   -4.2935    0.0000 C   0  0  0  0  0  0  0  0  0  0  0  0
    2.4278   -3.4685    0.0000 C   0  0  0  0  0  0  0  0  0  0  0  0
    3.1423   -3.0560    0.0000 C   0  0  0  0  0  0  0  0  0  0  0  0
    2.0153   -1.1040    0.0000 O   0  0  0  0  0  0  0  0  0  0  0  0
    2.4278   -0.3895    0.0000 C   0  0  0  0  0  0  0  0  0  0  0  0
    3.2528   -0.3895    0.0000 C   0  0  0  0  0  0  0  0  0  0  0  0
    3.6653    0.3249    0.0000 C   0  0  0  0  0  0  0  0  0  0  0  0
    3.2528    1.0394    0.0000 C   0  0  0  0  0  0  0  0  0  0  0  0
    2.4278    1.0394    0.0000 C   0  0  0  0  0  0  0  0  0  0  0  0
    2.0153    0.3249    0.0000 C   0  0  0  0  0  0  0  0  0  0  0  0
    1.1903    0.3249    0.0000 C   0  0  0  0  0  0  0  0  0  0  0  0
  1  2  2  0  0  0  0
  1  3  1  0  0  0  0
  3  4  1  0  0  0  0
  5  4  1  0  0  0  0
  6  5  2  0  0  0  0
  7  6  1  0  0  0  0
  8  7  2  0  0  0  0
  9  8  1  0  0  0  0
  4  9  2  0  0  0  0
  9 10  1  0  0  0  0
  1 11  1  0  0  0  0
 11 12  1  0  0  0  0
 13 12  1  0  0  0  0
 14 13  2  0  0  0  0
 15 14  1  0  0  0  0
 16 15  2  0  0  0  0
 17 16  1  0  0  0  0
 12 17  2  0  0  0  0
 17 18  1  0  0  0  0
  1 19  1  0  0  0  0
 19 20  1  0  0  0  0
 21 20  1  0  0  0  0
 22 21  2  0  0  0  0
 23 22  1  0  0  0  0
 24 23  2  0  0  0  0
 25 24  1  0  0  0  0
 20 25  2  0  0  0  0
 25 26  1  0  0  0  0
M  END
> <ChemID>
100128

> <CAS>
78-30-8

> <Original_SMILES>
Cc1ccccc1OP(=O)(Oc1ccccc1C)Oc1ccccc1C

> <preferred_name>
Tri-o-cresyl phosphate

> <dsstox_substance_id>
DTXSID6032192

> <dsstox_compound_id>
DTXCID4012192

> <qc_level>
DSSTox_Low

> <Canonical_QSARr>
CC1C=CC=CC=1OP(=O)(OC1C=CC=CC=1C)OC1C=CC=CC=1C

> <InChI_Code_QSARr>
InChI=1S/C21H21O4P/c1-16-10-4-7-13-19(16)23-26(22,24-20-14-8-5-11-17(20)2)25-21-15-9-6-12-18(21)3/h4-15H,1-3H3

> <InChI Key_QSARr>
YSMRWXYRXBRSND-UHFFFAOYSA-N

> <Salt_Solvent>


> <Salt_Solvent_ID>
0

> <MPID>
100139

> <Tr_1_Tst_0>
1

> <Ready_Biodeg>
1.0

$$$$
Row122
  Mrv171c012251911052D          

 11 10  0  0  0  0            999 V2000
    1.8128   -0.5177    0.0000 O   0  0  0  0  0  0  0  0  0  0  0  0
    2.2253   -1.2322    0.0000 P   0  0  0  0  0  0  0  0  0  0  0  0
    1.5109   -1.6447    0.0000 O   0  0  0  0  0  0  0  0  0  0  0  0
    0.7964   -1.2322    0.0000 C   0  0  0  0  0  0  0  0  0  0  0  0
    0.0819   -1.6447    0.0000 C   0  0  0  0  0  0  0  0  0  0  0  0
    2.9398   -0.8197    0.0000 O   0  0  0  0  0  0  0  0  0  0  0  0
    3.6543   -1.2322    0.0000 C   0  0  0  0  0  0  0  0  0  0  0  0
    4.3688   -0.8197    0.0000 C   0  0  0  0  0  0  0  0  0  0  0  0
    2.6378   -1.9466    0.0000 O   0  0  0  0  0  0  0  0  0  0  0  0
    2.2253   -2.6611    0.0000 C   0  0  0  0  0  0  0  0  0  0  0  0
    1.4003   -2.6611    0.0000 C   0  0  0  0  0  0  0  0  0  0  0  0
  1  2  2  0  0  0  0
  2  3  1  0  0  0  0
  3  4  1  0  0  0  0
  4  5  1  0  0  0  0
  2  6  1  0  0  0  0
  6  7  1  0  0  0  0
  7  8  1  0  0  0  0
  2  9  1  0  0  0  0
  9 10  1  0  0  0  0
 10 11  1  0  0  0  0
M  END
> <ChemID>
100129

> <CAS>
78-40-0

> <Original_SMILES>
CCOP(=O)(OCC)OCC

> <preferred_name>
Triethyl phosphate

> <dsstox_substance_id>
DTXSID8026228

> <dsstox_compound_id>
DTXCID806228

> <qc_level>
DSSTox_Low

> <Canonical_QSARr>
CCOP(=O)(OCC)OCC

> <InChI_Code_QSARr>
InChI=1S/C6H15O4P/c1-4-8-11(7,9-5-2)10-6-3/h4-6H2,1-3H3

> <InChI Key_QSARr>
DQWPFSLDHJDLRL-UHFFFAOYSA-N

> <Salt_Solvent>


> <Salt_Solvent_ID>
0

> <MPID>
100140

> <Tr_1_Tst_0>
1

> <Ready_Biodeg>
0.0

$$$$
Row123
  Mrv171c012251911052D          

 29 28  0  0  0  0            999 V2000
    4.1550   -6.2363    0.0000 O   0  0  0  0  0  0  0  0  0  0  0  0
    4.1550   -5.4113    0.0000 P   0  0  0  0  0  0  0  0  0  0  0  0
    4.9800   -5.4113    0.0000 O   0  0  0  0  0  0  0  0  0  0  0  0
    5.3925   -6.1258    0.0000 C   0  0  0  0  0  0  0  0  0  0  0  0
    6.2175   -6.1258    0.0000 C   0  0  0  0  0  0  0  0  0  0  0  0
    6.6300   -5.4113    0.0000 C   0  0  0  0  0  0  0  0  0  0  0  0
    7.4550   -5.4113    0.0000 C   0  0  0  0  0  0  0  0  0  0  0  0
    6.6300   -6.8402    0.0000 C   0  0  0  0  0  0  0  0  0  0  0  0
    7.4550   -6.8402    0.0000 C   0  0  0  0  0  0  0  0  0  0  0  0
    7.8675   -7.5547    0.0000 C   0  0  0  0  0  0  0  0  0  0  0  0
    8.6925   -7.5547    0.0000 C   0  0  0  0  0  0  0  0  0  0  0  0
    3.3300   -5.4113    0.0000 O   0  0  0  0  0  0  0  0  0  0  0  0
    2.9175   -4.6968    0.0000 C   0  0  0  0  0  0  0  0  0  0  0  0
    2.0925   -4.6968    0.0000 C   0  0  0  0  0  0  0  0  0  0  0  0
    1.6800   -5.4113    0.0000 C   0  0  0  0  0  0  0  0  0  0  0  0
    0.8550   -5.4113    0.0000 C   0  0  0  0  0  0  0  0  0  0  0  0
    1.6800   -3.9824    0.0000 C   0  0  0  0  0  0  0  0  0  0  0  0
    0.8550   -3.9824    0.0000 C   0  0  0  0  0  0  0  0  0  0  0  0
    0.4425   -3.2679    0.0000 C   0  0  0  0  0  0  0  0  0  0  0  0
   -0.3825   -3.2679    0.0000 C   0  0  0  0  0  0  0  0  0  0  0  0
    4.1550   -4.5863    0.0000 O   0  0  0  0  0  0  0  0  0  0  0  0
    3.4405   -4.1738    0.0000 C   0  0  0  0  0  0  0  0  0  0  0  0
    3.4405   -3.3488    0.0000 C   0  0  0  0  0  0  0  0  0  0  0  0
    2.7260   -2.9363    0.0000 C   0  0  0  0  0  0  0  0  0  0  0  0
    2.0115   -3.3488    0.0000 C   0  0  0  0  0  0  0  0  0  0  0  0
    4.1550   -2.9363    0.0000 C   0  0  0  0  0  0  0  0  0  0  0  0
    4.8694   -3.3488    0.0000 C   0  0  0  0  0  0  0  0  0  0  0  0
    5.5839   -2.9363    0.0000 C   0  0  0  0  0  0  0  0  0  0  0  0
    6.2984   -3.3488    0.0000 C   0  0  0  0  0  0  0  0  0  0  0  0
  1  2  2  0  0  0  0
  2  3  1  0  0  0  0
  3  4  1  0  0  0  0
  4  5  1  0  0  0  0
  5  6  1  0  0  0  0
  6  7  1  0  0  0  0
  5  8  1  0  0  0  0
  8  9  1  0  0  0  0
  9 10  1  0  0  0  0
 10 11  1  0  0  0  0
  2 12  1  0  0  0  0
 12 13  1  0  0  0  0
 13 14  1  0  0  0  0
 14 15  1  0  0  0  0
 15 16  1  0  0  0  0
 14 17  1  0  0  0  0
 17 18  1  0  0  0  0
 18 19  1  0  0  0  0
 19 20  1  0  0  0  0
  2 21  1  0  0  0  0
 21 22  1  0  0  0  0
 22 23  1  0  0  0  0
 23 24  1  0  0  0  0
 24 25  1  0  0  0  0
 23 26  1  0  0  0  0
 26 27  1  0  0  0  0
 27 28  1  0  0  0  0
 28 29  1  0  0  0  0
M  END
> <ChemID>
100130

> <CAS>
78-42-2

> <Original_SMILES>
CCCCC(COP(=O)(OCC(CCCC)CC)OCC(CCCC)CC)CC

> <preferred_name>
Tris(2-ethylhexyl) phosphate

> <dsstox_substance_id>
DTXSID0021414

> <dsstox_compound_id>
DTXCID801414

> <qc_level>
DSSTox_Low

> <Canonical_QSARr>
CCCCC(COP(=O)(OCC(CCCC)CC)OCC(CCCC)CC)CC

> <InChI_Code_QSARr>
InChI=1S/C24H51O4P/c1-7-13-16-22(10-4)19-26-29(25,27-20-23(11-5)17-14-8-2)28-21-24(12-6)18-15-9-3/h22-24H,7-21H2,1-6H3

> <InChI Key_QSARr>
GTVWRXDRKAHEAD-UHFFFAOYSA-N

> <Salt_Solvent>


> <Salt_Solvent_ID>
0

> <MPID>
100141

> <Tr_1_Tst_0>
1

> <Ready_Biodeg>
0.0

$$$$
Row124
  Mrv171c012251911052D          

 17 16  0  0  0  0            999 V2000
    2.2004   -3.4566    0.0000 P   0  0  0  0  0  0  0  0  0  0  0  0
    2.2004   -4.2816    0.0000 O   0  0  0  0  0  0  0  0  0  0  0  0
    3.0254   -3.4566    0.0000 S   0  0  0  0  0  0  0  0  0  0  0  0
    3.4379   -4.1711    0.0000 C   0  0  0  0  0  0  0  0  0  0  0  0
    4.2629   -4.1711    0.0000 C   0  0  0  0  0  0  0  0  0  0  0  0
    4.6754   -4.8855    0.0000 C   0  0  0  0  0  0  0  0  0  0  0  0
    5.5004   -4.8855    0.0000 C   0  0  0  0  0  0  0  0  0  0  0  0
    1.3754   -3.4566    0.0000 S   0  0  0  0  0  0  0  0  0  0  0  0
    0.9629   -2.7421    0.0000 C   0  0  0  0  0  0  0  0  0  0  0  0
    0.1379   -2.7421    0.0000 C   0  0  0  0  0  0  0  0  0  0  0  0
   -0.2746   -2.0276    0.0000 C   0  0  0  0  0  0  0  0  0  0  0  0
   -1.0996   -2.0276    0.0000 C   0  0  0  0  0  0  0  0  0  0  0  0
    2.2004   -2.6316    0.0000 S   0  0  0  0  0  0  0  0  0  0  0  0
    2.9149   -2.2191    0.0000 C   0  0  0  0  0  0  0  0  0  0  0  0
    3.6294   -2.6316    0.0000 C   0  0  0  0  0  0  0  0  0  0  0  0
    4.3438   -2.2191    0.0000 C   0  0  0  0  0  0  0  0  0  0  0  0
    5.0583   -2.6316    0.0000 C   0  0  0  0  0  0  0  0  0  0  0  0
  1  2  2  0  0  0  0
  1  3  1  0  0  0  0
  3  4  1  0  0  0  0
  4  5  1  0  0  0  0
  5  6  1  0  0  0  0
  6  7  1  0  0  0  0
  1  8  1  0  0  0  0
  8  9  1  0  0  0  0
  9 10  1  0  0  0  0
 10 11  1  0  0  0  0
 11 12  1  0  0  0  0
  1 13  1  0  0  0  0
 13 14  1  0  0  0  0
 14 15  1  0  0  0  0
 15 16  1  0  0  0  0
 16 17  1  0  0  0  0
M  END
> <ChemID>
100131

> <CAS>
78-48-8

> <Original_SMILES>
CCCCSP(=O)(SCCCC)SCCCC

> <preferred_name>
Tribufos

> <dsstox_substance_id>
DTXSID1024174

> <dsstox_compound_id>
DTXCID304174

> <qc_level>
DSSTox_Low

> <Canonical_QSARr>
CCCCSP(=O)(SCCCC)SCCCC

> <InChI_Code_QSARr>
InChI=1S/C12H27OPS3/c1-4-7-10-15-14(13,16-11-8-5-2)17-12-9-6-3/h4-12H2,1-3H3

> <InChI Key_QSARr>
ZOKXUAHZSKEQSS-UHFFFAOYSA-N

> <Salt_Solvent>


> <Salt_Solvent_ID>
0

> <MPID>
100142

> <Tr_1_Tst_0>
0

> <Ready_Biodeg>
1.0

$$$$
Row125
  Mrv171c012251911052D          

 26 25  0  0  0  0            999 V2000
    9.3189   -7.8940    0.0000 C   0  0  0  0  0  0  0  0  0  0  0  0
    8.4939   -7.8940    0.0000 C   0  0  0  0  0  0  0  0  0  0  0  0
    8.0814   -7.1795    0.0000 C   0  0  0  0  0  0  0  0  0  0  0  0
    7.2564   -7.1795    0.0000 C   0  0  0  0  0  0  0  0  0  0  0  0
    6.8439   -6.4650    0.0000 O   0  0  0  0  0  0  0  0  0  0  0  0
    6.0189   -6.4650    0.0000 C   0  0  0  0  0  0  0  0  0  0  0  0
    5.6064   -5.7505    0.0000 C   0  0  0  0  0  0  0  0  0  0  0  0
    4.7814   -5.7505    0.0000 O   0  0  0  0  0  0  0  0  0  0  0  0
    4.3689   -5.0361    0.0000 P   0  0  0  0  0  0  0  0  0  0  0  0
    3.9564   -4.3216    0.0000 O   0  0  0  0  0  0  0  0  0  0  0  0
    3.1314   -4.3216    0.0000 C   0  0  0  0  0  0  0  0  0  0  0  0
    2.7189   -3.6071    0.0000 C   0  0  0  0  0  0  0  0  0  0  0  0
    1.8939   -3.6071    0.0000 O   0  0  0  0  0  0  0  0  0  0  0  0
    1.4814   -2.8927    0.0000 C   0  0  0  0  0  0  0  0  0  0  0  0
    0.6564   -2.8927    0.0000 C   0  0  0  0  0  0  0  0  0  0  0  0
    0.2439   -2.1782    0.0000 C   0  0  0  0  0  0  0  0  0  0  0  0
   -0.5811   -2.1782    0.0000 C   0  0  0  0  0  0  0  0  0  0  0  0
    5.0834   -4.6236    0.0000 O   0  0  0  0  0  0  0  0  0  0  0  0
    5.0834   -3.7986    0.0000 C   0  0  0  0  0  0  0  0  0  0  0  0
    5.7978   -3.3861    0.0000 C   0  0  0  0  0  0  0  0  0  0  0  0
    6.5123   -3.7986    0.0000 O   0  0  0  0  0  0  0  0  0  0  0  0
    7.2268   -3.3861    0.0000 C   0  0  0  0  0  0  0  0  0  0  0  0
    7.9412   -3.7986    0.0000 C   0  0  0  0  0  0  0  0  0  0  0  0
    8.6557   -3.3861    0.0000 C   0  0  0  0  0  0  0  0  0  0  0  0
    9.3702   -3.7986    0.0000 C   0  0  0  0  0  0  0  0  0  0  0  0
    3.6544   -5.4486    0.0000 O   0  0  0  0  0  0  0  0  0  0  0  0
  1  2  1  0  0  0  0
  2  3  1  0  0  0  0
  3  4  1  0  0  0  0
  4  5  1  0  0  0  0
  5  6  1  0  0  0  0
  6  7  1  0  0  0  0
  7  8  1  0  0  0  0
  8  9  1  0  0  0  0
  9 10  1  0  0  0  0
 10 11  1  0  0  0  0
 11 12  1  0  0  0  0
 12 13  1  0  0  0  0
 13 14  1  0  0  0  0
 14 15  1  0  0  0  0
 15 16  1  0  0  0  0
 16 17  1  0  0  0  0
  9 18  1  0  0  0  0
 18 19  1  0  0  0  0
 19 20  1  0  0  0  0
 20 21  1  0  0  0  0
 21 22  1  0  0  0  0
 22 23  1  0  0  0  0
 23 24  1  0  0  0  0
 24 25  1  0  0  0  0
  9 26  2  0  0  0  0
M  END
> <ChemID>
100132

> <CAS>
78-51-3

> <Original_SMILES>
CCCCOCCOP(=O)(OCCOCCCC)OCCOCCCC

> <preferred_name>
Tris(2-butoxyethyl) phosphate

> <dsstox_substance_id>
DTXSID5021758

> <dsstox_compound_id>
DTXCID201758

> <qc_level>
DSSTox_Low

> <Canonical_QSARr>
CCCCOCCOP(=O)(OCCOCCCC)OCCOCCCC

> <InChI_Code_QSARr>
InChI=1S/C18H39O7P/c1-4-7-10-20-13-16-23-26(19,24-17-14-21-11-8-5-2)25-18-15-22-12-9-6-3/h4-18H2,1-3H3

> <InChI Key_QSARr>
WTLBZVNBAKMVDP-UHFFFAOYSA-N

> <Salt_Solvent>


> <Salt_Solvent_ID>
0

> <MPID>
100143

> <Tr_1_Tst_0>
1

> <Ready_Biodeg>
0.0

$$$$
Row126
  Mrv171c012251911052D          

 16 16  0  0  0  0            999 V2000
    4.5782   -0.3332    0.0000 N   0  0  0  0  0  0  0  0  0  0  0  0
    3.8637    0.0793    0.0000 C   0  0  0  0  0  0  0  0  0  0  0  0
    3.8637    0.9043    0.0000 N   0  0  0  0  0  0  0  0  0  0  0  0
    3.1493   -0.3332    0.0000 N   0  0  0  0  0  0  0  0  0  0  0  0
    3.1493   -1.1582    0.0000 C   0  0  0  0  0  0  0  0  0  0  0  0
    2.4348   -1.5707    0.0000 C   0  0  0  0  0  0  0  0  0  0  0  0
    2.4348   -2.3957    0.0000 S   0  0  0  0  0  0  0  0  0  0  0  0
    1.7203   -2.8082    0.0000 P   0  0  0  0  0  0  0  0  0  0  0  0
    1.0059   -3.2207    0.0000 O   0  0  0  0  0  0  0  0  0  0  0  0
    1.0059   -4.0457    0.0000 C   0  0  0  0  0  0  0  0  0  0  0  0
    1.3078   -2.0937    0.0000 O   0  0  0  0  0  0  0  0  0  0  0  0
    0.4828   -2.0937    0.0000 C   0  0  0  0  0  0  0  0  0  0  0  0
    2.1328   -3.5227    0.0000 S   0  0  0  0  0  0  0  0  0  0  0  0
    3.8637   -1.5707    0.0000 N   0  0  0  0  0  0  0  0  0  0  0  0
    4.5782   -1.1582    0.0000 C   0  0  0  0  0  0  0  0  0  0  0  0
    5.2927   -1.5707    0.0000 N   0  0  0  0  0  0  0  0  0  0  0  0
  2  1  1  0  0  0  0
  2  3  1  0  0  0  0
  4  2  2  0  0  0  0
  5  4  1  0  0  0  0
  5  6  1  0  0  0  0
  6  7  1  0  0  0  0
  7  8  1  0  0  0  0
  8  9  1  0  0  0  0
  9 10  1  0  0  0  0
  8 11  1  0  0  0  0
 11 12  1  0  0  0  0
  8 13  2  0  0  0  0
 14  5  2  0  0  0  0
 15 14  1  0  0  0  0
  1 15  2  0  0  0  0
 15 16  1  0  0  0  0
M  END
> <ChemID>
100133

> <CAS>
78-57-9

> <Original_SMILES>
COP(=S)(OC)SCc1[n]c(N)[n]c(N)[n]1

> <preferred_name>
Menazon

> <dsstox_substance_id>
DTXSID9042120

> <dsstox_compound_id>
DTXCID7022120

> <qc_level>
DSSTox_Low

> <Canonical_QSARr>
COP(=S)(OC)SCC1N=C(N)N=C(N)N=1

> <InChI_Code_QSARr>
InChI=1S/C6H12N5O2PS2/c1-12-14(15,13-2)16-3-4-9-5(7)11-6(8)10-4/h3H2,1-2H3,(H4,7,8,9,10,11)

> <InChI Key_QSARr>
SUYHYHLFUHHVJQ-UHFFFAOYSA-N

> <Salt_Solvent>


> <Salt_Solvent_ID>
0

> <MPID>
100144

> <Tr_1_Tst_0>
1

> <Ready_Biodeg>
0.0

$$$$
Row127
  Mrv171c012251911052D          

 10 10  0  0  0  0            999 V2000
    0.8878   -0.3833    0.0000 C   0  0  0  0  0  0  0  0  0  0  0  0
    1.4181   -1.0153    0.0000 C   0  0  0  0  0  0  0  0  0  0  0  0
    1.9484   -0.3833    0.0000 C   0  0  0  0  0  0  0  0  0  0  0  0
    0.7037   -1.4278    0.0000 C   0  0  0  0  0  0  0  0  0  0  0  0
    0.7037   -2.2528    0.0000 C   0  0  0  0  0  0  0  0  0  0  0  0
   -0.0108   -2.6653    0.0000 O   0  0  0  0  0  0  0  0  0  0  0  0
    1.4181   -2.6653    0.0000 C   0  0  0  0  0  0  0  0  0  0  0  0
    2.1326   -2.2528    0.0000 C   0  0  0  0  0  0  0  0  0  0  0  0
    2.8471   -2.6653    0.0000 C   0  0  0  0  0  0  0  0  0  0  0  0
    2.1326   -1.4278    0.0000 C   0  0  0  0  0  0  0  0  0  0  0  0
  1  2  1  0  0  0  0
  2  3  1  0  0  0  0
  4  2  1  0  0  0  0
  5  4  1  0  0  0  0
  5  6  2  0  0  0  0
  7  5  1  0  0  0  0
  8  7  2  0  0  0  0
  8  9  1  0  0  0  0
 10  8  1  0  0  0  0
  2 10  1  0  0  0  0
M  END
> <ChemID>
100134

> <CAS>
78-59-1

> <Original_SMILES>
CC1CC(C)(C)CC(=O)C=1

> <preferred_name>
Isophorone

> <dsstox_substance_id>
DTXSID8020759

> <dsstox_compound_id>
DTXCID40759

> <qc_level>
DSSTox_Low

> <Canonical_QSARr>
CC1CC(C)(C)CC(=O)C=1

> <InChI_Code_QSARr>
InChI=1S/C9H14O/c1-7-4-8(10)6-9(2,3)5-7/h4H,5-6H2,1-3H3

> <InChI Key_QSARr>
HJOVHMDZYOCNQW-UHFFFAOYSA-N

> <Salt_Solvent>


> <Salt_Solvent_ID>
0

> <MPID>
100145

> <Tr_1_Tst_0>
1

> <Ready_Biodeg>
1.0

$$$$
Row128
  Mrv171c012251911052D          

 12 11  0  0  0  0            999 V2000
    0.5230    1.1270    0.0000 C   0  0  0  0  0  0  0  0  0  0  0  0
    1.2375    0.7145    0.0000 C   0  0  0  0  0  0  0  0  0  0  0  0
    1.9520    0.3020    0.0000 C   0  0  0  0  0  0  0  0  0  0  0  0
    1.6500    1.4289    0.0000 C   0  0  0  0  0  0  0  0  0  0  0  0
    2.0625    2.1434    0.0000 N   0  0  0  0  0  0  0  0  0  0  0  0
    0.8250    0.0000    0.0000 N   0  0  0  0  0  0  0  0  0  0  0  0
    0.0000    0.0000    0.0000 N   0  0  0  0  0  0  0  0  0  0  0  0
   -0.4125   -0.7145    0.0000 C   0  0  0  0  0  0  0  0  0  0  0  0
   -1.1270   -0.3020    0.0000 C   0  0  0  0  0  0  0  0  0  0  0  0
    0.3020   -1.1270    0.0000 C   0  0  0  0  0  0  0  0  0  0  0  0
   -0.8250   -1.4289    0.0000 C   0  0  0  0  0  0  0  0  0  0  0  0
   -1.2375   -2.1434    0.0000 N   0  0  0  0  0  0  0  0  0  0  0  0
  1  2  1  0  0  0  0
  2  3  1  0  0  0  0
  2  4  1  0  0  0  0
  4  5  3  0  0  0  0
  6  2  1  4  0  0  0
  6  7  2  0  0  0  0
  7  8  1  0  0  0  0
  8  9  1  0  0  0  0
  8 10  1  0  0  0  0
  8 11  1  0  0  0  0
 11 12  3  0  0  0  0
M  END
> <ChemID>
100135

> <CAS>
78-67-1

> <Original_SMILES>
CC(C)(C#N)/N=N/C(C)(C)C#N

> <preferred_name>
2,2'-Azobis(2-methylpropanenitrile)

> <dsstox_substance_id>
DTXSID1026457

> <dsstox_compound_id>
DTXCID60809637

> <qc_level>
DSSTox_Low

> <Canonical_QSARr>
CC(C)(C#N)N=NC(C)(C)C#N

> <InChI_Code_QSARr>
InChI=1S/C8H12N4/c1-7(2,5-9)11-12-8(3,4)6-10/h1-4H3

> <InChI Key_QSARr>
OZAIFHULBGXAKX-UHFFFAOYSA-N

> <Salt_Solvent>


> <Salt_Solvent_ID>
0

> <MPID>
100146

> <Tr_1_Tst_0>
0

> <Ready_Biodeg>
0.0

$$$$
Row129
  Mrv171c012251911052D          

  5  4  0  0  0  0            999 V2000
    1.5564   -1.8255    0.0000 C   0  0  0  0  0  0  0  0  0  0  0  0
    1.1439   -1.1110    0.0000 C   0  0  0  0  0  0  0  0  0  0  0  0
    1.5564   -0.3965    0.0000 C   0  0  0  0  0  0  0  0  0  0  0  0
    1.1439    0.3179    0.0000 C   0  0  0  0  0  0  0  0  0  0  0  0
    0.3189   -1.1110    0.0000 C   0  0  0  0  0  0  0  0  0  0  0  0
  1  2  1  0  0  0  0
  2  3  1  0  0  0  0
  3  4  2  0  0  0  0
  2  5  2  0  0  0  0
M  END
> <ChemID>
100136

> <CAS>
78-79-5

> <Original_SMILES>
CC(=C)C=C

> <preferred_name>
Isoprene

> <dsstox_substance_id>
DTXSID2020761

> <dsstox_compound_id>
DTXCID20761

> <qc_level>
DSSTox_Low

> <Canonical_QSARr>
CC(=C)C=C

> <InChI_Code_QSARr>
InChI=1S/C5H8/c1-4-5(2)3/h4H,1-2H2,3H3

> <InChI Key_QSARr>
RRHGJUQNOFWUDK-UHFFFAOYSA-N

> <Salt_Solvent>


> <Salt_Solvent_ID>
0

> <MPID>
100147

> <Tr_1_Tst_0>
1

> <Ready_Biodeg>
0.0

$$$$
Row130
  Mrv171c012251911052D          

  5  4  0  0  0  0            999 V2000
    1.1430    0.3186    0.0000 N   0  0  0  0  0  0  0  0  0  0  0  0
    1.5555   -0.3959    0.0000 C   0  0  0  0  0  0  0  0  0  0  0  0
    1.1430   -1.1104    0.0000 C   0  0  0  0  0  0  0  0  0  0  0  0
    1.5555   -1.8248    0.0000 C   0  0  0  0  0  0  0  0  0  0  0  0
    0.3180   -1.1104    0.0000 C   0  0  0  0  0  0  0  0  0  0  0  0
  1  2  1  0  0  0  0
  2  3  1  0  0  0  0
  3  4  1  0  0  0  0
  3  5  1  0  0  0  0
M  END
> <ChemID>
100137

> <CAS>
78-81-9

> <Original_SMILES>
CC(C)CN

> <preferred_name>
Isobutylamine

> <dsstox_substance_id>
DTXSID9025459

> <dsstox_compound_id>
DTXCID405459

> <qc_level>
DSSTox_Low

> <Canonical_QSARr>
CC(C)CN

> <InChI_Code_QSARr>
InChI=1S/C4H11N/c1-4(2)3-5/h4H,3,5H2,1-2H3

> <InChI Key_QSARr>
KDSNLYIMUZNERS-UHFFFAOYSA-N

> <Salt_Solvent>


> <Salt_Solvent_ID>
0

> <MPID>
100148

> <Tr_1_Tst_0>
1

> <Ready_Biodeg>
1.0

$$$$
Row131
  Mrv171c012251911052D          

  5  4  0  0  0  0            999 V2000
    1.3878   -0.2340    0.0000 C   0  0  0  0  0  0  0  0  0  0  0  0
    1.8003    0.4804    0.0000 N   0  0  0  0  0  0  0  0  0  0  0  0
    0.9753   -0.9485    0.0000 C   0  0  0  0  0  0  0  0  0  0  0  0
    1.3878   -1.6630    0.0000 C   0  0  0  0  0  0  0  0  0  0  0  0
    0.1503   -0.9485    0.0000 C   0  0  0  0  0  0  0  0  0  0  0  0
  1  2  3  0  0  0  0
  1  3  1  0  0  0  0
  3  4  1  0  0  0  0
  3  5  1  0  0  0  0
M  END
> <ChemID>
100138

> <CAS>
78-82-0

> <Original_SMILES>
CC(C)C#N

> <preferred_name>
2-Methylpropanenitrile

> <dsstox_substance_id>
DTXSID5026461

> <dsstox_compound_id>
DTXCID606461

> <qc_level>
DSSTox_Low

> <Canonical_QSARr>
CC(C)C#N

> <InChI_Code_QSARr>
InChI=1S/C4H7N/c1-4(2)3-5/h4H,1-2H3

> <InChI Key_QSARr>
LRDFRRGEGBBSRN-UHFFFAOYSA-N

> <Salt_Solvent>


> <Salt_Solvent_ID>
0

> <MPID>
100149

> <Tr_1_Tst_0>
1

> <Ready_Biodeg>
1.0

$$$$
Row132
  Mrv171c012251911052D          

  5  4  0  0  0  0            999 V2000
    1.1430    0.3186    0.0000 O   0  0  0  0  0  0  0  0  0  0  0  0
    1.5555   -0.3959    0.0000 C   0  0  0  0  0  0  0  0  0  0  0  0
    1.1430   -1.1104    0.0000 C   0  0  0  0  0  0  0  0  0  0  0  0
    1.5555   -1.8248    0.0000 C   0  0  0  0  0  0  0  0  0  0  0  0
    0.3180   -1.1104    0.0000 C   0  0  0  0  0  0  0  0  0  0  0  0
  1  2  1  0  0  0  0
  2  3  1  0  0  0  0
  3  4  1  0  0  0  0
  3  5  1  0  0  0  0
M  END
> <ChemID>
100139

> <CAS>
78-83-1

> <Original_SMILES>
CC(C)CO

> <preferred_name>
2-Methyl-1-propanol

> <dsstox_substance_id>
DTXSID0021759

> <dsstox_compound_id>
DTXCID601759

> <qc_level>
DSSTox_High

> <Canonical_QSARr>
CC(C)CO

> <InChI_Code_QSARr>
InChI=1S/C4H10O/c1-4(2)3-5/h4-5H,3H2,1-2H3

> <InChI Key_QSARr>
ZXEKIIBDNHEJCQ-UHFFFAOYSA-N

> <Salt_Solvent>


> <Salt_Solvent_ID>
0

> <MPID>
100150

> <Tr_1_Tst_0>
0

> <Ready_Biodeg>
1.0

$$$$
Row133
  Mrv171c012251911052D          

  5  4  0  0  0  0            999 V2000
    1.5555   -1.8248    0.0000 C   0  0  0  0  0  0  0  0  0  0  0  0
    1.1430   -1.1104    0.0000 C   0  0  0  0  0  0  0  0  0  0  0  0
    1.5555   -0.3959    0.0000 C   0  0  0  0  0  0  0  0  0  0  0  0
    1.1430    0.3186    0.0000 O   0  0  0  0  0  0  0  0  0  0  0  0
    0.3180   -1.1104    0.0000 C   0  0  0  0  0  0  0  0  0  0  0  0
  1  2  1  0  0  0  0
  2  3  1  0  0  0  0
  3  4  2  0  0  0  0
  2  5  1  0  0  0  0
M  END
> <ChemID>
100140

> <CAS>
78-84-2

> <Original_SMILES>
CC(C)C=O

> <preferred_name>
2-Methylpropanal

> <dsstox_substance_id>
DTXSID9021635

> <dsstox_compound_id>
DTXCID201635

> <qc_level>
DSSTox_Low

> <Canonical_QSARr>
CC(C)C=O

> <InChI_Code_QSARr>
InChI=1S/C4H8O/c1-4(2)3-5/h3-4H,1-2H3

> <InChI Key_QSARr>
AMIMRNSIRUDHCM-UHFFFAOYSA-N

> <Salt_Solvent>


> <Salt_Solvent_ID>
0

> <MPID>
100151

> <Tr_1_Tst_0>
1

> <Ready_Biodeg>
1.0

$$$$
Row134
  Mrv171c012251911052D          

  5  4  0  0  0  0            999 V2000
    2.2164   -0.9681    0.0000 C   0  0  0  0  0  0  0  0  0  0  0  0
    1.3914   -0.9681    0.0000 C   0  0  0  0  0  0  0  0  0  0  0  0
    0.9789   -1.6826    0.0000 Cl  0  0  0  0  0  0  0  0  0  0  0  0
    0.9789   -0.2536    0.0000 C   0  0  0  0  0  0  0  0  0  0  0  0
    0.1539   -0.2536    0.0000 Cl  0  0  0  0  0  0  0  0  0  0  0  0
  1  2  1  0  0  0  0
  2  3  1  0  0  0  0
  2  4  1  0  0  0  0
  4  5  1  0  0  0  0
M  END
> <ChemID>
100141

> <CAS>
78-87-5

> <Original_SMILES>
CC(Cl)CCl

> <preferred_name>
1,2-Dichloropropane

> <dsstox_substance_id>
DTXSID0020448

> <dsstox_compound_id>
DTXCID60448

> <qc_level>
DSSTox_Low

> <Canonical_QSARr>
CC(Cl)CCl

> <InChI_Code_QSARr>
InChI=1S/C3H6Cl2/c1-3(5)2-4/h3H,2H2,1H3

> <InChI Key_QSARr>
KNKRKFALVUDBJE-UHFFFAOYSA-N

> <Salt_Solvent>


> <Salt_Solvent_ID>
0

> <MPID>
100152

> <Tr_1_Tst_0>
1

> <Ready_Biodeg>
0.0

$$$$
Row135
  Mrv171c012251911052D          

  5  4  0  0  0  0            999 V2000
    1.5573   -1.8261    0.0000 C   0  0  0  0  0  0  0  0  0  0  0  0
    1.1448   -1.1117    0.0000 C   0  0  0  0  0  0  0  0  0  0  0  0
    1.5573   -0.3972    0.0000 C   0  0  0  0  0  0  0  0  0  0  0  0
    1.1448    0.3173    0.0000 C   0  0  0  0  0  0  0  0  0  0  0  0
    0.3198   -1.1117    0.0000 O   0  0  0  0  0  0  0  0  0  0  0  0
  1  2  1  0  0  0  0
  2  3  1  0  0  0  0
  3  4  1  0  0  0  0
  2  5  1  0  0  0  0
M  END
> <ChemID>
100142

> <CAS>
78-92-2

> <Original_SMILES>
CCC(C)O

> <preferred_name>
2-Butanol

> <dsstox_substance_id>
DTXSID9021762

> <dsstox_compound_id>
DTXCID101762

> <qc_level>
DSSTox_Low

> <Canonical_QSARr>
CCC(C)O

> <InChI_Code_QSARr>
InChI=1S/C4H10O/c1-3-4(2)5/h4-5H,3H2,1-2H3

> <InChI Key_QSARr>
BTANRVKWQNVYAZ-UHFFFAOYSA-N

> <Salt_Solvent>


> <Salt_Solvent_ID>
0

> <MPID>
100153

> <Tr_1_Tst_0>
1

> <Ready_Biodeg>
1.0

$$$$
Row136
  Mrv171c012251911052D          

  5  4  0  0  0  0            999 V2000
    2.2173   -0.9688    0.0000 C   0  0  0  0  0  0  0  0  0  0  0  0
    1.3923   -0.9688    0.0000 C   0  0  0  0  0  0  0  0  0  0  0  0
    0.9798   -1.6832    0.0000 O   0  0  0  0  0  0  0  0  0  0  0  0
    0.9798   -0.2543    0.0000 C   0  0  0  0  0  0  0  0  0  0  0  0
    0.1548   -0.2543    0.0000 C   0  0  0  0  0  0  0  0  0  0  0  0
  1  2  1  0  0  0  0
  2  3  2  0  0  0  0
  2  4  1  0  0  0  0
  4  5  1  0  0  0  0
M  END
> <ChemID>
100143

> <CAS>
78-93-3

> <Original_SMILES>
CCC(C)=O

> <preferred_name>
Methyl ethyl ketone

> <dsstox_substance_id>
DTXSID3021516

> <dsstox_compound_id>
DTXCID801516

> <qc_level>
DSSTox_Low

> <Canonical_QSARr>
CCC(C)=O

> <InChI_Code_QSARr>
InChI=1S/C4H8O/c1-3-4(2)5/h3H2,1-2H3

> <InChI Key_QSARr>
ZWEHNKRNPOVVGH-UHFFFAOYSA-N

> <Salt_Solvent>


> <Salt_Solvent_ID>
0

> <MPID>
100154

> <Tr_1_Tst_0>
0

> <Ready_Biodeg>
1.0

$$$$
Row137
  Mrv171c012251911052D          

  5  4  0  0  0  0            999 V2000
    2.2173   -0.9688    0.0000 O   0  0  0  0  0  0  0  0  0  0  0  0
    1.3923   -0.9688    0.0000 C   0  0  0  0  0  0  0  0  0  0  0  0
    0.9798   -1.6832    0.0000 C   0  0  0  0  0  0  0  0  0  0  0  0
    0.9798   -0.2543    0.0000 C   0  0  0  0  0  0  0  0  0  0  0  0
    0.1548   -0.2543    0.0000 C   0  0  0  0  0  0  0  0  0  0  0  0
  1  2  2  0  0  0  0
  2  3  1  0  0  0  0
  2  4  1  0  0  0  0
  4  5  2  0  0  0  0
M  END
> <ChemID>
100144

> <CAS>
78-94-4

> <Original_SMILES>
CC(=O)C=C

> <preferred_name>
Methyl vinyl ketone

> <dsstox_substance_id>
DTXSID3025671

> <dsstox_compound_id>
DTXCID205671

> <qc_level>
DSSTox_Low

> <Canonical_QSARr>
CC(=O)C=C

> <InChI_Code_QSARr>
InChI=1S/C4H6O/c1-3-4(2)5/h3H,1H2,2H3

> <InChI Key_QSARr>
FUSUHKVFWTUUBE-UHFFFAOYSA-N

> <Salt_Solvent>


> <Salt_Solvent_ID>
0

> <MPID>
100155

> <Tr_1_Tst_0>
1

> <Ready_Biodeg>
0.0

$$$$
Row138
  Mrv171c012251911052D          

  5  4  0  0  0  0            999 V2000
    2.2148   -0.9669    0.0000 Cl  0  0  0  0  0  0  0  0  0  0  0  0
    1.3898   -0.9669    0.0000 C   0  0  0  0  0  0  0  0  0  0  0  0
    0.9773   -1.6814    0.0000 Cl  0  0  0  0  0  0  0  0  0  0  0  0
    0.9773   -0.2525    0.0000 C   0  0  0  0  0  0  0  0  0  0  0  0
    0.1523   -0.2525    0.0000 Cl  0  0  0  0  0  0  0  0  0  0  0  0
  1  2  1  0  0  0  0
  2  3  1  0  0  0  0
  2  4  1  0  0  0  0
  4  5  1  0  0  0  0
M  END
> <ChemID>
100145

> <CAS>
79-00-5

> <Original_SMILES>
ClCC(Cl)Cl

> <preferred_name>
1,1,2-Trichloroethane

> <dsstox_substance_id>
DTXSID5021380

> <dsstox_compound_id>
DTXCID101380

> <qc_level>
DSSTox_Low

> <Canonical_QSARr>
ClCC(Cl)Cl

> <InChI_Code_QSARr>
InChI=1S/C2H3Cl3/c3-1-2(4)5/h2H,1H2

> <InChI Key_QSARr>
UBOXGVDOUJQMTN-UHFFFAOYSA-N

> <Salt_Solvent>


> <Salt_Solvent_ID>
0

> <MPID>
100156

> <Tr_1_Tst_0>
1

> <Ready_Biodeg>
0.0

$$$$
Row139
  Mrv171c012251911052D          

  5  4  0  0  0  0            999 V2000
    1.8023    0.0333    0.0000 Cl  0  0  0  0  0  0  0  0  0  0  0  0
    1.3898   -0.6812    0.0000 C   0  0  0  0  0  0  0  0  0  0  0  0
    1.8023   -1.3956    0.0000 Cl  0  0  0  0  0  0  0  0  0  0  0  0
    0.5648   -0.6812    0.0000 C   0  0  0  0  0  0  0  0  0  0  0  0
    0.1523   -1.3956    0.0000 Cl  0  0  0  0  0  0  0  0  0  0  0  0
  1  2  1  0  0  0  0
  2  3  1  0  0  0  0
  2  4  2  0  0  0  0
  4  5  1  0  0  0  0
M  END
> <ChemID>
100146

> <CAS>
79-01-6

> <Original_SMILES>
ClC=C(Cl)Cl

> <preferred_name>
Trichloroethylene

> <dsstox_substance_id>
DTXSID0021383

> <dsstox_compound_id>
DTXCID901382

> <qc_level>
DSSTox_Low

> <Canonical_QSARr>
ClC=C(Cl)Cl

> <InChI_Code_QSARr>
InChI=1S/C2HCl3/c3-1-2(4)5/h1H

> <InChI Key_QSARr>
XSTXAVWGXDQKEL-UHFFFAOYSA-N

> <Salt_Solvent>


> <Salt_Solvent_ID>
0

> <MPID>
100157

> <Tr_1_Tst_0>
1

> <Ready_Biodeg>
0.0

$$$$
Row140
  Mrv171c012251911052D          

  5  4  0  0  0  0            999 V2000
    1.5564   -1.8255    0.0000 N   0  0  0  0  0  0  0  0  0  0  0  0
    1.1439   -1.1110    0.0000 C   0  0  0  0  0  0  0  0  0  0  0  0
    1.5564   -0.3965    0.0000 C   0  0  0  0  0  0  0  0  0  0  0  0
    1.1439    0.3179    0.0000 C   0  0  0  0  0  0  0  0  0  0  0  0
    0.3189   -1.1110    0.0000 O   0  0  0  0  0  0  0  0  0  0  0  0
  1  2  1  0  0  0  0
  2  3  1  0  0  0  0
  3  4  2  0  0  0  0
  2  5  2  0  0  0  0
M  END
> <ChemID>
100147

> <CAS>
79-06-1

> <Original_SMILES>
C=CC(N)=O

> <preferred_name>
Acrylamide

> <dsstox_substance_id>
DTXSID5020027

> <dsstox_compound_id>
DTXCID6027

> <qc_level>
DSSTox_Low

> <Canonical_QSARr>
C=CC(N)=O

> <InChI_Code_QSARr>
InChI=1S/C3H5NO/c1-2-3(4)5/h2H,1H2,(H2,4,5)

> <InChI Key_QSARr>
HRPVXLWXLXDGHG-UHFFFAOYSA-N

> <Salt_Solvent>


> <Salt_Solvent_ID>
0

> <MPID>
100158

> <Tr_1_Tst_0>
0

> <Ready_Biodeg>
1.0

$$$$
Row141
  Mrv171c012251911052D          

  5  4  0  0  0  0            999 V2000
    1.5564   -1.8255    0.0000 O   0  0  0  0  0  0  0  0  0  0  0  0
    1.1439   -1.1110    0.0000 C   0  0  0  0  0  0  0  0  0  0  0  0
    1.5564   -0.3965    0.0000 C   0  0  0  0  0  0  0  0  0  0  0  0
    1.1439    0.3179    0.0000 C   0  0  0  0  0  0  0  0  0  0  0  0
    0.3189   -1.1110    0.0000 O   0  0  0  0  0  0  0  0  0  0  0  0
  1  2  2  0  0  0  0
  2  3  1  0  0  0  0
  3  4  1  0  0  0  0
  2  5  1  0  0  0  0
M  END
> <ChemID>
100148

> <CAS>
79-09-4

> <Original_SMILES>
CCC(O)=O

> <preferred_name>
Propionic acid

> <dsstox_substance_id>
DTXSID8025961

> <dsstox_compound_id>
DTXCID505961

> <qc_level>
DSSTox_Low

> <Canonical_QSARr>
CCC(O)=O

> <InChI_Code_QSARr>
InChI=1S/C3H6O2/c1-2-3(4)5/h2H2,1H3,(H,4,5)

> <InChI Key_QSARr>
XBDQKXXYIPTUBI-UHFFFAOYSA-N

> <Salt_Solvent>


> <Salt_Solvent_ID>
0

> <MPID>
100159

> <Tr_1_Tst_0>
1

> <Ready_Biodeg>
1.0

$$$$
Row142
  Mrv171c012251911052D          

  5  4  0  0  0  0            999 V2000
    2.2110   -2.2032    0.0000 O   0  0  0  0  0  0  0  0  0  0  0  0
    1.7985   -1.4887    0.0000 C   0  0  0  0  0  0  0  0  0  0  0  0
    2.2110   -0.7742    0.0000 C   0  0  0  0  0  0  0  0  0  0  0  0
    1.7985   -0.0598    0.0000 C   0  0  0  0  0  0  0  0  0  0  0  0
    0.9735   -1.4887    0.0000 O   0  0  0  0  0  0  0  0  0  0  0  0
  1  2  1  0  0  0  0
  2  3  1  0  0  0  0
  3  4  2  0  0  0  0
  2  5  2  0  0  0  0
M  END
> <ChemID>
100149

> <CAS>
79-10-7

> <Original_SMILES>
C=CC(O)=O

> <preferred_name>
Acrylic acid

> <dsstox_substance_id>
DTXSID0039229

> <dsstox_compound_id>
DTXCID8028

> <qc_level>
DSSTox_High

> <Canonical_QSARr>
C=CC(O)=O

> <InChI_Code_QSARr>
InChI=1S/C3H4O2/c1-2-3(4)5/h2H,1H2,(H,4,5)

> <InChI Key_QSARr>
NIXOWILDQLNWCW-UHFFFAOYSA-N

> <Salt_Solvent>


> <Salt_Solvent_ID>
0

> <MPID>
100160

> <Tr_1_Tst_0>
1

> <Ready_Biodeg>
1.0

$$$$
Row143
  Mrv171c012251911052D          

  5  4  0  0  0  0            999 V2000
    1.5548   -1.8243    0.0000 O   0  0  0  0  0  0  0  0  0  0  0  0
    1.1423   -1.1098    0.0000 C   0  0  0  0  0  0  0  0  0  0  0  0
    1.5548   -0.3954    0.0000 C   0  0  0  0  0  0  0  0  0  0  0  0
    1.1423    0.3191    0.0000 Cl  0  0  0  0  0  0  0  0  0  0  0  0
    0.3173   -1.1098    0.0000 O   0  0  0  0  0  0  0  0  0  0  0  0
  1  2  1  0  0  0  0
  2  3  1  0  0  0  0
  3  4  1  0  0  0  0
  2  5  2  0  0  0  0
M  END
> <ChemID>
100150

> <CAS>
79-11-8

> <Original_SMILES>
OC(=O)CCl

> <preferred_name>
Chloroacetic acid

> <dsstox_substance_id>
DTXSID4020901

> <dsstox_compound_id>
DTXCID20901

> <qc_level>
DSSTox_Low

> <Canonical_QSARr>
OC(=O)CCl

> <InChI_Code_QSARr>
InChI=1S/C2H3ClO2/c3-1-2(4)5/h1H2,(H,4,5)

> <InChI Key_QSARr>
FOCAUTSVDIKZOP-UHFFFAOYSA-N

> <Salt_Solvent>


> <Salt_Solvent_ID>
0

> <MPID>
100161

> <Tr_1_Tst_0>
1

> <Ready_Biodeg>
1.0

$$$$
Row144
  Mrv171c012251911052D          

  5  4  0  0  0  0            999 V2000
    1.1423   -1.1098    0.0000 C   0  0  0  0  0  0  0  0  0  0  0  0
    1.5548   -0.3954    0.0000 C   0  0  0  0  0  0  0  0  0  0  0  0
    1.1423    0.3191    0.0000 O   0  0  0  0  0  0  0  0  0  0  0  0
    1.5548   -1.8243    0.0000 O   0  0  0  0  0  0  0  0  0  0  0  0
    0.3173   -1.1098    0.0000 O   0  0  0  0  0  0  0  0  0  0  0  0
  1  2  1  0  0  0  0
  2  3  1  0  0  0  0
  1  4  1  0  0  0  0
  1  5  2  0  0  0  0
M  END
> <ChemID>
100151

> <CAS>
79-14-1

> <Original_SMILES>
OCC(O)=O

> <preferred_name>
Glycolic acid

> <dsstox_substance_id>
DTXSID0025363

> <dsstox_compound_id>
DTXCID105363

> <qc_level>
DSSTox_Low

> <Canonical_QSARr>
OCC(O)=O

> <InChI_Code_QSARr>
InChI=1S/C2H4O3/c3-1-2(4)5/h3H,1H2,(H,4,5)

> <InChI Key_QSARr>
AEMRFAOFKBGASW-UHFFFAOYSA-N

> <Salt_Solvent>


> <Salt_Solvent_ID>
0

> <MPID>
100162

> <Tr_1_Tst_0>
0

> <Ready_Biodeg>
1.0

$$$$
Row145
  Mrv171c012251911052D          

  5  4  0  0  0  0            999 V2000
    1.0040   -1.1104    0.0000 C   0  0  0  0  0  0  0  0  0  0  0  0
    1.4165   -1.8248    0.0000 C   0  0  0  0  0  0  0  0  0  0  0  0
    1.4165   -0.3959    0.0000 N   0  0  0  0  0  0  0  0  0  0  0  0
    1.0040    0.3186    0.0000 C   0  0  0  0  0  0  0  0  0  0  0  0
    0.1790   -1.1104    0.0000 O   0  0  0  0  0  0  0  0  0  0  0  0
  1  2  1  0  0  0  0
  1  3  1  0  0  0  0
  3  4  1  0  0  0  0
  1  5  2  0  0  0  0
M  END
> <ChemID>
100152

> <CAS>
79-16-3

> <Original_SMILES>
CNC(C)=O

> <preferred_name>
N-Methylacetamide

> <dsstox_substance_id>
DTXSID0047167

> <dsstox_compound_id>
DTXCID8027167

> <qc_level>
DSSTox_Low

> <Canonical_QSARr>
CNC(C)=O

> <InChI_Code_QSARr>
InChI=1S/C3H7NO/c1-3(5)4-2/h1-2H3,(H,4,5)

> <InChI Key_QSARr>
OHLUUHNLEMFGTQ-UHFFFAOYSA-N

> <Salt_Solvent>


> <Salt_Solvent_ID>
0

> <MPID>
100163

> <Tr_1_Tst_0>
1

> <Ready_Biodeg>
1.0

$$$$
Row146
  Mrv171c012251911052D          

  5  4  0  0  0  0            999 V2000
    1.4132   -1.8255    0.0000 N   0  0  0  0  0  0  0  0  0  0  0  0
    1.0007   -1.1110    0.0000 C   0  0  0  0  0  0  0  0  0  0  0  0
    1.4132   -0.3965    0.0000 N   0  0  0  0  0  0  0  0  0  0  0  0
    1.0007    0.3179    0.0000 N   0  0  0  0  0  0  0  0  0  0  0  0
    0.1757   -1.1110    0.0000 S   0  0  0  0  0  0  0  0  0  0  0  0
  1  2  1  0  0  0  0
  2  3  1  0  0  0  0
  3  4  1  0  0  0  0
  2  5  2  0  0  0  0
M  END
> <ChemID>
100153

> <CAS>
79-19-6

> <Original_SMILES>
NNC(N)=S

> <preferred_name>
Thiosemicarbazide

> <dsstox_substance_id>
DTXSID9021346

> <dsstox_compound_id>
DTXCID301346

> <qc_level>
DSSTox_Low

> <Canonical_QSARr>
NNC(N)=S

> <InChI_Code_QSARr>
InChI=1S/CH5N3S/c2-1(5)4-3/h3H2,(H3,2,4,5)

> <InChI Key_QSARr>
BRWIZMBXBAOCCF-UHFFFAOYSA-N

> <Salt_Solvent>


> <Salt_Solvent_ID>
0

> <MPID>
100164

> <Tr_1_Tst_0>
1

> <Ready_Biodeg>
0.0

$$$$
Row147
  Mrv171c012251911052D          

  6  5  0  0  0  0            999 V2000
    0.8241   -1.4283    0.0000 C   0  0  0  0  0  0  0  0  0  0  0  0
    1.2366   -0.7138    0.0000 C   0  0  0  0  0  0  0  0  0  0  0  0
    0.8241    0.0007    0.0000 Br  0  0  0  0  0  0  0  0  0  0  0  0
    2.0616   -0.7138    0.0000 Br  0  0  0  0  0  0  0  0  0  0  0  0
    1.2366   -2.1427    0.0000 Br  0  0  0  0  0  0  0  0  0  0  0  0
   -0.0009   -1.4283    0.0000 Br  0  0  0  0  0  0  0  0  0  0  0  0
  1  2  1  0  0  0  0
  2  3  1  0  0  0  0
  2  4  1  0  0  0  0
  1  5  1  0  0  0  0
  1  6  1  0  0  0  0
M  END
> <ChemID>
100154

> <CAS>
79-27-6

> <Original_SMILES>
BrC(Br)C(Br)Br

> <preferred_name>
1,1,2,2-Tetrabromoethane

> <dsstox_substance_id>
DTXSID1026083

> <dsstox_compound_id>
DTXCID206083

> <qc_level>
DSSTox_Low

> <Canonical_QSARr>
BrC(Br)C(Br)Br

> <InChI_Code_QSARr>
InChI=1S/C2H2Br4/c3-1(4)2(5)6/h1-2H

> <InChI Key_QSARr>
QXSZNDIIPUOQMB-UHFFFAOYSA-N

> <Salt_Solvent>


> <Salt_Solvent_ID>
0

> <MPID>
100165

> <Tr_1_Tst_0>
1

> <Ready_Biodeg>
0.0

$$$$
Row148
  Mrv171c012251911052D          

  6  5  0  0  0  0            999 V2000
    1.2370   -2.1431    0.0000 C   0  0  0  0  0  0  0  0  0  0  0  0
    0.8245   -1.4286    0.0000 C   0  0  0  0  0  0  0  0  0  0  0  0
    1.2370   -0.7141    0.0000 C   0  0  0  0  0  0  0  0  0  0  0  0
    0.8245    0.0003    0.0000 O   0  0  0  0  0  0  0  0  0  0  0  0
    2.0620   -0.7141    0.0000 O   0  0  0  0  0  0  0  0  0  0  0  0
   -0.0005   -1.4286    0.0000 C   0  0  0  0  0  0  0  0  0  0  0  0
  1  2  1  0  0  0  0
  2  3  1  0  0  0  0
  3  4  2  0  0  0  0
  3  5  1  0  0  0  0
  2  6  1  0  0  0  0
M  END
> <ChemID>
100155

> <CAS>
79-31-2

> <Original_SMILES>
CC(C)C(O)=O

> <preferred_name>
2-Methylpropanoic acid

> <dsstox_substance_id>
DTXSID4021636

> <dsstox_compound_id>
DTXCID601636

> <qc_level>
DSSTox_Low

> <Canonical_QSARr>
CC(C)C(O)=O

> <InChI_Code_QSARr>
InChI=1S/C4H8O2/c1-3(2)4(5)6/h3H,1-2H3,(H,5,6)

> <InChI Key_QSARr>
KQNPFQTWMSNSAP-UHFFFAOYSA-N

> <Salt_Solvent>


> <Salt_Solvent_ID>
0

> <MPID>
100166

> <Tr_1_Tst_0>
0

> <Ready_Biodeg>
1.0

$$$$
Row149
  Mrv171c012251911052D          

  6  5  0  0  0  0            999 V2000
    0.8241    0.0007    0.0000 Cl  0  0  0  0  0  0  0  0  0  0  0  0
    1.2366   -0.7138    0.0000 C   0  0  0  0  0  0  0  0  0  0  0  0
    2.0616   -0.7138    0.0000 Cl  0  0  0  0  0  0  0  0  0  0  0  0
    0.8241   -1.4283    0.0000 C   0  0  0  0  0  0  0  0  0  0  0  0
    1.2366   -2.1427    0.0000 Cl  0  0  0  0  0  0  0  0  0  0  0  0
   -0.0009   -1.4283    0.0000 Cl  0  0  0  0  0  0  0  0  0  0  0  0
  1  2  1  0  0  0  0
  2  3  1  0  0  0  0
  2  4  1  0  0  0  0
  4  5  1  0  0  0  0
  4  6  1  0  0  0  0
M  END
> <ChemID>
100156

> <CAS>
79-34-5

> <Original_SMILES>
ClC(Cl)C(Cl)Cl

> <preferred_name>
1,1,2,2-Tetrachloroethane

> <dsstox_substance_id>
DTXSID7021318

> <dsstox_compound_id>
DTXCID201318

> <qc_level>
DSSTox_Low

> <Canonical_QSARr>
ClC(Cl)C(Cl)Cl

> <InChI_Code_QSARr>
InChI=1S/C2H2Cl4/c3-1(4)2(5)6/h1-2H

> <InChI Key_QSARr>
QPFMBZIOSGYJDE-UHFFFAOYSA-N

> <Salt_Solvent>


> <Salt_Solvent_ID>
0

> <MPID>
100167

> <Tr_1_Tst_0>
1

> <Ready_Biodeg>
0.0

$$$$
Row150
  Mrv171c012251911052D          

  6  5  0  0  0  0            999 V2000
    1.2370   -2.1431    0.0000 C   0  0  0  0  0  0  0  0  0  0  0  0
    0.8245   -1.4286    0.0000 C   0  0  0  0  0  0  0  0  0  0  0  0
    1.2370   -0.7141    0.0000 C   0  0  0  0  0  0  0  0  0  0  0  0
    0.8245    0.0003    0.0000 O   0  0  0  0  0  0  0  0  0  0  0  0
    2.0620   -0.7141    0.0000 O   0  0  0  0  0  0  0  0  0  0  0  0
   -0.0005   -1.4286    0.0000 C   0  0  0  0  0  0  0  0  0  0  0  0
  1  2  1  0  0  0  0
  2  3  1  0  0  0  0
  3  4  2  0  0  0  0
  3  5  1  0  0  0  0
  2  6  2  0  0  0  0
M  END
> <ChemID>
100157

> <CAS>
79-41-4

> <Original_SMILES>
CC(=C)C(O)=O

> <preferred_name>
Methacrylic acid

> <dsstox_substance_id>
DTXSID3025542

> <dsstox_compound_id>
DTXCID505542

> <qc_level>
DSSTox_Low

> <Canonical_QSARr>
CC(=C)C(O)=O

> <InChI_Code_QSARr>
InChI=1S/C4H6O2/c1-3(2)4(5)6/h1H2,2H3,(H,5,6)

> <InChI Key_QSARr>
CERQOIWHTDAKMF-UHFFFAOYSA-N

> <Salt_Solvent>


> <Salt_Solvent_ID>
0

> <MPID>
100168

> <Tr_1_Tst_0>
1

> <Ready_Biodeg>
1.0

$$$$
Row151
  Mrv171c012251911052D          

  6  5  0  0  0  0            999 V2000
    1.2366   -2.1427    0.0000 O   0  0  0  0  0  0  0  0  0  0  0  0
    0.8241   -1.4283    0.0000 C   0  0  0  0  0  0  0  0  0  0  0  0
    1.2366   -0.7138    0.0000 C   0  0  0  0  0  0  0  0  0  0  0  0
    0.8241    0.0007    0.0000 Cl  0  0  0  0  0  0  0  0  0  0  0  0
    2.0616   -0.7138    0.0000 Cl  0  0  0  0  0  0  0  0  0  0  0  0
   -0.0009   -1.4283    0.0000 O   0  0  0  0  0  0  0  0  0  0  0  0
  1  2  1  0  0  0  0
  2  3  1  0  0  0  0
  3  4  1  0  0  0  0
  3  5  1  0  0  0  0
  2  6  2  0  0  0  0
M  END
> <ChemID>
100158

> <CAS>
79-43-6

> <Original_SMILES>
OC(=O)C(Cl)Cl

> <preferred_name>
Dichloroacetic acid

> <dsstox_substance_id>
DTXSID2020428

> <dsstox_compound_id>
DTXCID20428

> <qc_level>
DSSTox_Low

> <Canonical_QSARr>
OC(=O)C(Cl)Cl

> <InChI_Code_QSARr>
InChI=1S/C2H2Cl2O2/c3-1(4)2(5)6/h1H,(H,5,6)

> <InChI Key_QSARr>
JXTHNDFMNIQAHM-UHFFFAOYSA-N

> <Salt_Solvent>


> <Salt_Solvent_ID>
0

> <MPID>
100169

> <Tr_1_Tst_0>
1

> <Ready_Biodeg>
1.0

$$$$
Row152
  Mrv171c012251911052D          

 10 11  0  0  0  0            999 V2000
    0.1653   -0.8721    0.0000 C   0  0  0  0  0  0  0  0  0  0  0  0
    0.8798   -0.4596    0.0000 C   0  0  0  0  0  0  0  0  0  0  0  0
    1.5943   -0.8721    0.0000 C   0  0  0  0  0  0  0  0  0  0  0  0
    2.3087   -0.4596    0.0000 C   0  0  0  0  0  0  0  0  0  0  0  0
    1.5943   -1.6971    0.0000 C   0  0  0  0  0  0  0  0  0  0  0  0
    2.4067   -1.5538    0.0000 C   0  0  0  0  0  0  0  0  0  0  0  0
    1.8764   -2.4723    0.0000 C   0  0  0  0  0  0  0  0  0  0  0  0
    0.8798   -2.1096    0.0000 C   0  0  0  0  0  0  0  0  0  0  0  0
    0.6736   -1.2846    0.0000 C   0  0  0  0  0  0  0  0  0  0  0  0
    0.1653   -1.6971    0.0000 C   0  0  0  0  0  0  0  0  0  0  0  0
  2  1  1  0  0  0  0
  2  3  1  0  0  0  0
  3  4  2  0  0  0  0
  3  5  1  0  0  0  0
  5  6  1  0  0  0  0
  5  7  1  0  0  0  0
  5  8  1  0  0  0  0
  8  9  1  0  0  0  0
  9  2  1  0  0  0  0
 10  8  1  0  0  0  0
  1 10  1  0  0  0  0
M  END
> <ChemID>
100159

> <CAS>
79-92-5|5794-04-7

> <Original_SMILES>
CC1(C)C2CC(CC2)C1=C

> <preferred_name>
Camphene|(-)-Camphene

> <dsstox_substance_id>
DTXSID8026488|DTXSID3046538

> <dsstox_compound_id>
DTXCID006488|DTXCID1026538

> <qc_level>
DSSTox_High

> <Canonical_QSARr>
CC1(C)C2CC(CC2)C1=C

> <InChI_Code_QSARr>
InChI=1S/C10H16/c1-7-8-4-5-9(6-8)10(7,2)3/h8-9H,1,4-6H2,2-3H3

> <InChI Key_QSARr>
CRPUJAZIXJMDBK-UHFFFAOYSA-N

> <Salt_Solvent>


> <Salt_Solvent_ID>
0

> <MPID>
100170|101090

> <Tr_1_Tst_0>
0

> <Ready_Biodeg>
0.0

$$$$
Row153
  Mrv171c012251911052D          

 21 22  0  0  0  0            999 V2000
    2.2564   -2.4777    0.0000 C   0  0  0  0  0  0  0  0  0  0  0  0
    1.5419   -2.0652    0.0000 C   0  0  0  0  0  0  0  0  0  0  0  0
    1.5419   -1.2402    0.0000 C   0  0  0  0  0  0  0  0  0  0  0  0
    0.8274   -0.8277    0.0000 C   0  0  0  0  0  0  0  0  0  0  0  0
    0.8274   -0.0027    0.0000 Br  0  0  0  0  0  0  0  0  0  0  0  0
    0.1130   -1.2402    0.0000 C   0  0  0  0  0  0  0  0  0  0  0  0
   -0.6015   -0.8277    0.0000 O   0  0  0  0  0  0  0  0  0  0  0  0
    0.1130   -2.0652    0.0000 C   0  0  0  0  0  0  0  0  0  0  0  0
   -0.6015   -2.4777    0.0000 Br  0  0  0  0  0  0  0  0  0  0  0  0
    0.8274   -2.4777    0.0000 C   0  0  0  0  0  0  0  0  0  0  0  0
    2.9709   -2.8902    0.0000 C   0  0  0  0  0  0  0  0  0  0  0  0
    2.9709   -3.7152    0.0000 C   0  0  0  0  0  0  0  0  0  0  0  0
    3.6853   -4.1277    0.0000 C   0  0  0  0  0  0  0  0  0  0  0  0
    3.6853   -4.9527    0.0000 Br  0  0  0  0  0  0  0  0  0  0  0  0
    4.3998   -3.7152    0.0000 C   0  0  0  0  0  0  0  0  0  0  0  0
    5.1143   -4.1277    0.0000 O   0  0  0  0  0  0  0  0  0  0  0  0
    4.3998   -2.8902    0.0000 C   0  0  0  0  0  0  0  0  0  0  0  0
    5.1143   -2.4777    0.0000 Br  0  0  0  0  0  0  0  0  0  0  0  0
    3.6853   -2.4777    0.0000 C   0  0  0  0  0  0  0  0  0  0  0  0
    1.8439   -3.1922    0.0000 C   0  0  0  0  0  0  0  0  0  0  0  0
    2.6689   -1.7633    0.0000 C   0  0  0  0  0  0  0  0  0  0  0  0
  1  2  1  0  0  0  0
  3  2  1  0  0  0  0
  4  3  2  0  0  0  0
  4  5  1  0  0  0  0
  6  4  1  0  0  0  0
  6  7  1  0  0  0  0
  8  6  2  0  0  0  0
  8  9  1  0  0  0  0
 10  8  1  0  0  0  0
  2 10  2  0  0  0  0
  1 11  1  0  0  0  0
 12 11  1  0  0  0  0
 13 12  2  0  0  0  0
 13 14  1  0  0  0  0
 15 13  1  0  0  0  0
 15 16  1  0  0  0  0
 17 15  2  0  0  0  0
 17 18  1  0  0  0  0
 19 17  1  0  0  0  0
 11 19  2  0  0  0  0
  1 20  1  0  0  0  0
  1 21  1  0  0  0  0
M  END
> <ChemID>
100160

> <CAS>
79-94-7

> <Original_SMILES>
CC(C)(c1cc(Br)c(O)c(Br)c1)c1cc(Br)c(O)c(Br)c1

> <preferred_name>
3,3',5,5'-Tetrabromobisphenol A

> <dsstox_substance_id>
DTXSID1026081

> <dsstox_compound_id>
DTXCID406081

> <qc_level>
DSSTox_Low

> <Canonical_QSARr>
CC(C)(C1=CC(Br)=C(O)C(Br)=C1)C1=CC(Br)=C(O)C(Br)=C1

> <InChI_Code_QSARr>
InChI=1S/C15H12Br4O2/c1-15(2,7-3-9(16)13(20)10(17)4-7)8-5-11(18)14(21)12(19)6-8/h3-6,20-21H,1-2H3

> <InChI Key_QSARr>
VEORPZCZECFIRK-UHFFFAOYSA-N

> <Salt_Solvent>


> <Salt_Solvent_ID>
0

> <MPID>
100171

> <Tr_1_Tst_0>
1

> <Ready_Biodeg>
0.0

$$$$
Row154
  Mrv171c012251911052D          

 17 18  0  0  0  0            999 V2000
    1.5011   -1.6268    0.0000 C   0  0  0  0  0  0  0  0  0  0  0  0
    2.3261   -1.6268    0.0000 C   0  0  0  0  0  0  0  0  0  0  0  0
    3.1511   -1.6268    0.0000 C   0  0  0  0  0  0  0  0  0  0  0  0
    2.3261   -0.8018    0.0000 C   0  0  0  0  0  0  0  0  0  0  0  0
    3.0405   -0.3893    0.0000 C   0  0  0  0  0  0  0  0  0  0  0  0
    3.0405    0.4357    0.0000 C   0  0  0  0  0  0  0  0  0  0  0  0
    2.3261    0.8482    0.0000 C   0  0  0  0  0  0  0  0  0  0  0  0
    2.3261    1.6732    0.0000 O   0  0  0  0  0  0  0  0  0  0  0  0
    1.6116    0.4357    0.0000 C   0  0  0  0  0  0  0  0  0  0  0  0
    1.6116   -0.3893    0.0000 C   0  0  0  0  0  0  0  0  0  0  0  0
    2.3261   -2.4518    0.0000 C   0  0  0  0  0  0  0  0  0  0  0  0
    1.6116   -2.8643    0.0000 C   0  0  0  0  0  0  0  0  0  0  0  0
    1.6116   -3.6893    0.0000 C   0  0  0  0  0  0  0  0  0  0  0  0
    2.3261   -4.1018    0.0000 C   0  0  0  0  0  0  0  0  0  0  0  0
    2.3261   -4.9268    0.0000 O   0  0  0  0  0  0  0  0  0  0  0  0
    3.0405   -3.6893    0.0000 C   0  0  0  0  0  0  0  0  0  0  0  0
    3.0405   -2.8643    0.0000 C   0  0  0  0  0  0  0  0  0  0  0  0
  1  2  1  0  0  0  0
  2  3  1  0  0  0  0
  2  4  1  0  0  0  0
  5  4  1  0  0  0  0
  6  5  2  0  0  0  0
  7  6  1  0  0  0  0
  7  8  1  0  0  0  0
  9  7  2  0  0  0  0
 10  9  1  0  0  0  0
  4 10  2  0  0  0  0
  2 11  1  0  0  0  0
 12 11  1  0  0  0  0
 13 12  2  0  0  0  0
 14 13  1  0  0  0  0
 14 15  1  0  0  0  0
 16 14  2  0  0  0  0
 17 16  1  0  0  0  0
 11 17  2  0  0  0  0
M  END
> <ChemID>
100161

> <CAS>
80-05-7

> <Original_SMILES>
CC(C)(c1ccc(O)cc1)c1ccc(O)cc1

> <preferred_name>
Bisphenol A

> <dsstox_substance_id>
DTXSID7020182

> <dsstox_compound_id>
DTXCID30182

> <qc_level>
DSSTox_High

> <Canonical_QSARr>
CC(C)(C1C=CC(O)=CC=1)C1C=CC(O)=CC=1

> <InChI_Code_QSARr>
InChI=1S/C15H16O2/c1-15(2,11-3-7-13(16)8-4-11)12-5-9-14(17)10-6-12/h3-10,16-17H,1-2H3

> <InChI Key_QSARr>
IISBACLAFKSPIT-UHFFFAOYSA-N

> <Salt_Solvent>


> <Salt_Solvent_ID>
0

> <MPID>
100172

> <Tr_1_Tst_0>
1

> <Ready_Biodeg>
0.0

$$$$
Row155
  Mrv171c012251911052D          

 18 19  0  0  0  0            999 V2000
    3.3539   -1.1036    0.0000 O   0  0  0  0  0  0  0  0  0  0  0  0
    2.9414   -1.8180    0.0000 S   0  0  0  0  0  0  0  0  0  0  0  0
    2.2270   -1.4055    0.0000 O   0  0  0  0  0  0  0  0  0  0  0  0
    2.2270   -0.5805    0.0000 C   0  0  0  0  0  0  0  0  0  0  0  0
    2.9414   -0.1680    0.0000 C   0  0  0  0  0  0  0  0  0  0  0  0
    2.9414    0.6570    0.0000 C   0  0  0  0  0  0  0  0  0  0  0  0
    2.2270    1.0695    0.0000 C   0  0  0  0  0  0  0  0  0  0  0  0
    2.2270    1.8945    0.0000 Cl  0  0  0  0  0  0  0  0  0  0  0  0
    1.5125    0.6570    0.0000 C   0  0  0  0  0  0  0  0  0  0  0  0
    1.5125   -0.1680    0.0000 C   0  0  0  0  0  0  0  0  0  0  0  0
    3.6559   -2.2305    0.0000 C   0  0  0  0  0  0  0  0  0  0  0  0
    3.6559   -3.0555    0.0000 C   0  0  0  0  0  0  0  0  0  0  0  0
    4.3704   -3.4680    0.0000 C   0  0  0  0  0  0  0  0  0  0  0  0
    5.0848   -3.0555    0.0000 C   0  0  0  0  0  0  0  0  0  0  0  0
    5.7993   -3.4680    0.0000 Cl  0  0  0  0  0  0  0  0  0  0  0  0
    5.0848   -2.2305    0.0000 C   0  0  0  0  0  0  0  0  0  0  0  0
    4.3704   -1.8180    0.0000 C   0  0  0  0  0  0  0  0  0  0  0  0
    2.5289   -2.5325    0.0000 O   0  0  0  0  0  0  0  0  0  0  0  0
  1  2  2  0  0  0  0
  2  3  1  0  0  0  0
  3  4  1  0  0  0  0
  5  4  1  0  0  0  0
  6  5  2  0  0  0  0
  7  6  1  0  0  0  0
  7  8  1  0  0  0  0
  9  7  2  0  0  0  0
 10  9  1  0  0  0  0
  4 10  2  0  0  0  0
  2 11  1  0  0  0  0
 12 11  1  0  0  0  0
 13 12  2  0  0  0  0
 14 13  1  0  0  0  0
 14 15  1  0  0  0  0
 16 14  2  0  0  0  0
 17 16  1  0  0  0  0
 11 17  2  0  0  0  0
  2 18  2  0  0  0  0
M  END
> <ChemID>
100162

> <CAS>
80-33-1

> <Original_SMILES>
O=S(=O)(Oc1ccc(Cl)cc1)c1ccc(Cl)cc1

> <preferred_name>
Chlorfenson

> <dsstox_substance_id>
DTXSID5020310

> <dsstox_compound_id>
DTXCID50310

> <qc_level>
DSSTox_High

> <Canonical_QSARr>
O=S(=O)(OC1C=CC(Cl)=CC=1)C1C=CC(Cl)=CC=1

> <InChI_Code_QSARr>
InChI=1S/C12H8Cl2O3S/c13-9-1-5-11(6-2-9)17-18(15,16)12-7-3-10(14)4-8-12/h1-8H

> <InChI Key_QSARr>
RZXLPPRPEOUENN-UHFFFAOYSA-N

> <Salt_Solvent>


> <Salt_Solvent_ID>
0

> <MPID>
100173

> <Tr_1_Tst_0>
1

> <Ready_Biodeg>
0.0

$$$$
Row156
  Mrv171c012251911052D          

 20 21  0  0  0  0            999 V2000
    1.9690   -2.0898    0.0000 O   0  0  0  0  0  0  0  0  0  0  0  0
    1.9690   -2.9148    0.0000 C   0  0  0  0  0  0  0  0  0  0  0  0
    2.7940   -2.9148    0.0000 C   0  0  0  0  0  0  0  0  0  0  0  0
    1.1440   -2.9148    0.0000 C   0  0  0  0  0  0  0  0  0  0  0  0
    1.9690   -3.7398    0.0000 C   0  0  0  0  0  0  0  0  0  0  0  0
    1.2545   -4.1523    0.0000 C   0  0  0  0  0  0  0  0  0  0  0  0
    1.2545   -4.9773    0.0000 C   0  0  0  0  0  0  0  0  0  0  0  0
    1.9690   -5.3898    0.0000 C   0  0  0  0  0  0  0  0  0  0  0  0
    2.6835   -4.9773    0.0000 C   0  0  0  0  0  0  0  0  0  0  0  0
    2.6835   -4.1523    0.0000 C   0  0  0  0  0  0  0  0  0  0  0  0
    2.6835   -1.6773    0.0000 O   0  0  0  0  0  0  0  0  0  0  0  0
    2.6835   -0.8523    0.0000 C   0  0  0  0  0  0  0  0  0  0  0  0
    3.5085   -0.8523    0.0000 C   0  0  0  0  0  0  0  0  0  0  0  0
    1.8585   -0.8523    0.0000 C   0  0  0  0  0  0  0  0  0  0  0  0
    2.6835   -0.0273    0.0000 C   0  0  0  0  0  0  0  0  0  0  0  0
    3.3979    0.3852    0.0000 C   0  0  0  0  0  0  0  0  0  0  0  0
    3.3979    1.2102    0.0000 C   0  0  0  0  0  0  0  0  0  0  0  0
    2.6835    1.6227    0.0000 C   0  0  0  0  0  0  0  0  0  0  0  0
    1.9690    1.2102    0.0000 C   0  0  0  0  0  0  0  0  0  0  0  0
    1.9690    0.3852    0.0000 C   0  0  0  0  0  0  0  0  0  0  0  0
  1  2  1  0  0  0  0
  2  3  1  0  0  0  0
  2  4  1  0  0  0  0
  2  5  1  0  0  0  0
  6  5  1  0  0  0  0
  7  6  2  0  0  0  0
  8  7  1  0  0  0  0
  9  8  2  0  0  0  0
 10  9  1  0  0  0  0
  5 10  2  0  0  0  0
  1 11  1  0  0  0  0
 11 12  1  0  0  0  0
 12 13  1  0  0  0  0
 12 14  1  0  0  0  0
 12 15  1  0  0  0  0
 16 15  1  0  0  0  0
 17 16  2  0  0  0  0
 18 17  1  0  0  0  0
 19 18  2  0  0  0  0
 20 19  1  0  0  0  0
 15 20  2  0  0  0  0
M  END
> <ChemID>
100163

> <CAS>
80-43-3

> <Original_SMILES>
CC(C)(OOC(C)(C)c1ccccc1)c1ccccc1

> <preferred_name>
Dicumyl peroxide

> <dsstox_substance_id>
DTXSID1025017

> <dsstox_compound_id>
DTXCID605017

> <qc_level>
DSSTox_Low

> <Canonical_QSARr>
CC(C)(OOC(C)(C)C1C=CC=CC=1)C1C=CC=CC=1

> <InChI_Code_QSARr>
InChI=1S/C18H22O2/c1-17(2,15-11-7-5-8-12-15)19-20-18(3,4)16-13-9-6-10-14-16/h5-14H,1-4H3

> <InChI Key_QSARr>
XMNIXWIUMCBBBL-UHFFFAOYSA-N

> <Salt_Solvent>


> <Salt_Solvent_ID>
0

> <MPID>
100174

> <Tr_1_Tst_0>
0

> <Ready_Biodeg>
0.0

$$$$
Row157
  Mrv171c012251911052D          

 23 24  0  0  0  0            999 V2000
    4.7058   -3.1288    0.0000 C   0  0  0  0  0  0  0  0  0  0  0  0
    4.7058   -3.9538    0.0000 S   0  0  0  0  0  0  0  0  0  0  0  0
    4.7058   -4.7788    0.0000 N   0  0  0  0  0  0  0  0  0  0  0  0
    3.9913   -5.1913    0.0000 N   0  0  0  0  0  0  0  0  0  0  0  0
    5.5308   -3.9538    0.0000 O   0  0  0  0  0  0  0  0  0  0  0  0
    3.8808   -3.9538    0.0000 O   0  0  0  0  0  0  0  0  0  0  0  0
    5.4203   -2.7163    0.0000 C   0  0  0  0  0  0  0  0  0  0  0  0
    5.4203   -1.8913    0.0000 C   0  0  0  0  0  0  0  0  0  0  0  0
    4.7058   -1.4788    0.0000 C   0  0  0  0  0  0  0  0  0  0  0  0
    4.7058   -0.6538    0.0000 O   0  0  0  0  0  0  0  0  0  0  0  0
    3.9913   -0.2413    0.0000 C   0  0  0  0  0  0  0  0  0  0  0  0
    3.9913    0.5837    0.0000 C   0  0  0  0  0  0  0  0  0  0  0  0
    3.2768    0.9962    0.0000 C   0  0  0  0  0  0  0  0  0  0  0  0
    2.5624    0.5837    0.0000 C   0  0  0  0  0  0  0  0  0  0  0  0
    1.8479    0.9962    0.0000 S   0  0  0  0  0  0  0  0  0  0  0  0
    1.1334    1.4087    0.0000 N   0  0  0  0  0  0  0  0  0  0  0  0
    0.4190    0.9962    0.0000 N   0  0  0  0  0  0  0  0  0  0  0  0
    2.2604    1.7106    0.0000 O   0  0  0  0  0  0  0  0  0  0  0  0
    1.4354    0.2817    0.0000 O   0  0  0  0  0  0  0  0  0  0  0  0
    2.5624   -0.2413    0.0000 C   0  0  0  0  0  0  0  0  0  0  0  0
    3.2768   -0.6538    0.0000 C   0  0  0  0  0  0  0  0  0  0  0  0
    3.9913   -1.8913    0.0000 C   0  0  0  0  0  0  0  0  0  0  0  0
    3.9913   -2.7163    0.0000 C   0  0  0  0  0  0  0  0  0  0  0  0
  1  2  1  0  0  0  0
  2  3  1  0  0  0  0
  3  4  1  0  0  0  0
  2  5  2  0  0  0  0
  2  6  2  0  0  0  0
  7  1  1  0  0  0  0
  8  7  2  0  0  0  0
  9  8  1  0  0  0  0
  9 10  1  0  0  0  0
 10 11  1  0  0  0  0
 12 11  1  0  0  0  0
 13 12  2  0  0  0  0
 14 13  1  0  0  0  0
 14 15  1  0  0  0  0
 15 16  1  0  0  0  0
 16 17  1  0  0  0  0
 15 18  2  0  0  0  0
 15 19  2  0  0  0  0
 20 14  2  0  0  0  0
 21 20  1  0  0  0  0
 11 21  2  0  0  0  0
 22  9  2  0  0  0  0
 23 22  1  0  0  0  0
  1 23  2  0  0  0  0
M  END
> <ChemID>
100164

> <CAS>
80-51-3

> <Original_SMILES>
NNS(=O)(=O)c1ccc(cc1)Oc1ccc(cc1)S(=O)(=O)NN

> <preferred_name>
4,4'-Oxybis(benzenesulfonhydrazide)

> <dsstox_substance_id>
DTXSID7026499

> <dsstox_compound_id>
DTXCID706499

> <qc_level>
DSSTox_Low

> <Canonical_QSARr>
NNS(=O)(=O)C1C=CC(=CC=1)OC1C=CC(=CC=1)S(=O)(=O)NN

> <InChI_Code_QSARr>
InChI=1S/C12H14N4O5S2/c13-15-22(17,18)11-5-1-9(2-6-11)21-10-3-7-12(8-4-10)23(19,20)16-14/h1-8,15-16H,13-14H2

> <InChI Key_QSARr>
NBOCQTNZUPTTEI-UHFFFAOYSA-N

> <Salt_Solvent>


> <Salt_Solvent_ID>
0

> <MPID>
100175

> <Tr_1_Tst_0>
1

> <Ready_Biodeg>
0.0

$$$$
Row158
  Mrv171c012251911052D          

 15 15  0  0  0  0            999 V2000
    3.0351   -1.7901    0.0000 C   0  0  0  0  0  0  0  0  0  0  0  0
    3.0351   -2.6151    0.0000 C   0  0  0  0  0  0  0  0  0  0  0  0
    2.3207   -3.0276    0.0000 C   0  0  0  0  0  0  0  0  0  0  0  0
    1.6062   -2.6151    0.0000 C   0  0  0  0  0  0  0  0  0  0  0  0
    2.3207   -3.8526    0.0000 C   0  0  0  0  0  0  0  0  0  0  0  0
    1.6062   -4.2651    0.0000 O   0  0  0  0  0  0  0  0  0  0  0  0
    3.7496   -1.3776    0.0000 C   0  0  0  0  0  0  0  0  0  0  0  0
    3.7496   -0.5526    0.0000 C   0  0  0  0  0  0  0  0  0  0  0  0
    3.0351   -0.1401    0.0000 C   0  0  0  0  0  0  0  0  0  0  0  0
    3.0351    0.6849    0.0000 C   0  0  0  0  0  0  0  0  0  0  0  0
    3.0351    1.5099    0.0000 C   0  0  0  0  0  0  0  0  0  0  0  0
    3.8601    0.6849    0.0000 C   0  0  0  0  0  0  0  0  0  0  0  0
    2.2101    0.6849    0.0000 C   0  0  0  0  0  0  0  0  0  0  0  0
    2.3207   -0.5526    0.0000 C   0  0  0  0  0  0  0  0  0  0  0  0
    2.3207   -1.3776    0.0000 C   0  0  0  0  0  0  0  0  0  0  0  0
  1  2  1  0  0  0  0
  2  3  1  0  0  0  0
  3  4  1  0  0  0  0
  3  5  1  0  0  0  0
  5  6  2  0  0  0  0
  7  1  1  0  0  0  0
  8  7  2  0  0  0  0
  9  8  1  0  0  0  0
  9 10  1  0  0  0  0
 10 11  1  0  0  0  0
 10 12  1  0  0  0  0
 10 13  1  0  0  0  0
 14  9  2  0  0  0  0
 15 14  1  0  0  0  0
  1 15  2  0  0  0  0
M  END
> <ChemID>
100165

> <CAS>
80-54-6

> <Original_SMILES>
CC(C)(C)c1ccc(CC(C)C=O)cc1

> <preferred_name>
3-(4-tert-Butylphenyl)-2-methylpropanal

> <dsstox_substance_id>
DTXSID9026500

> <dsstox_compound_id>
DTXCID606500

> <qc_level>
DSSTox_Low

> <Canonical_QSARr>
CC(CC1=CC=C(C=C1)C(C)(C)C)C=O

> <InChI_Code_QSARr>
InChI=1S/C14H20O/c1-11(10-15)9-12-5-7-13(8-6-12)14(2,3)4/h5-8,10-11H,9H2,1-4H3

> <InChI Key_QSARr>
SDQFDHOLCGWZPU-UHFFFAOYSA-N

> <Salt_Solvent>


> <Salt_Solvent_ID>
0

> <MPID>
100176

> <Tr_1_Tst_0>
1

> <Ready_Biodeg>
0.0

$$$$
Row159
  Mrv171c012251911052D          

  7  6  0  0  0  0            999 V2000
    2.1797   -1.1224    0.0000 O   0  0  0  0  0  0  0  0  0  0  0  0
    1.3547   -1.1224    0.0000 C   0  0  0  0  0  0  0  0  0  0  0  0
    0.9422   -0.4079    0.0000 O   0  0  0  0  0  0  0  0  0  0  0  0
    1.3547    0.3066    0.0000 C   0  0  0  0  0  0  0  0  0  0  0  0
    0.9422   -1.8369    0.0000 C   0  0  0  0  0  0  0  0  0  0  0  0
    1.3547   -2.5513    0.0000 C   0  0  0  0  0  0  0  0  0  0  0  0
    0.1172   -1.8369    0.0000 C   0  0  0  0  0  0  0  0  0  0  0  0
  1  2  2  0  0  0  0
  2  3  1  0  0  0  0
  3  4  1  0  0  0  0
  2  5  1  0  0  0  0
  5  6  1  0  0  0  0
  5  7  2  0  0  0  0
M  END
> <ChemID>
100166

> <CAS>
80-62-6

> <Original_SMILES>
CC(=C)C(=O)OC

> <preferred_name>
Methyl methacrylate

> <dsstox_substance_id>
DTXSID2020844

> <dsstox_compound_id>
DTXCID80844

> <qc_level>
DSSTox_Low

> <Canonical_QSARr>
CC(=C)C(=O)OC

> <InChI_Code_QSARr>
InChI=1S/C5H8O2/c1-4(2)5(6)7-3/h1H2,2-3H3

> <InChI Key_QSARr>
VVQNEPGJFQJSBK-UHFFFAOYSA-N

> <Salt_Solvent>


> <Salt_Solvent_ID>
0

> <MPID>
100177

> <Tr_1_Tst_0>
1

> <Ready_Biodeg>
1.0

$$$$
Row160
  Mrv171c012251911052D          

 18 19  0  0  0  0            999 V2000
    0.8362   -0.8339    0.0000 S   0  0  0  0  0  0  0  0  0  0  0  0
    0.8362   -0.0089    0.0000 O   0  0  0  0  0  0  0  0  0  0  0  0
    0.0112   -0.8339    0.0000 O   0  0  0  0  0  0  0  0  0  0  0  0
    1.6612   -0.8339    0.0000 O   0  0  0  0  0  0  0  0  0  0  0  0
    0.8362   -1.6589    0.0000 C   0  0  0  0  0  0  0  0  0  0  0  0
    0.1217   -2.0714    0.0000 C   0  0  0  0  0  0  0  0  0  0  0  0
    0.1217   -2.8964    0.0000 C   0  0  0  0  0  0  0  0  0  0  0  0
    0.8362   -3.3089    0.0000 C   0  0  0  0  0  0  0  0  0  0  0  0
    1.5507   -2.8964    0.0000 C   0  0  0  0  0  0  0  0  0  0  0  0
    1.5507   -2.0714    0.0000 C   0  0  0  0  0  0  0  0  0  0  0  0
    2.2651   -1.6589    0.0000 C   0  0  0  0  0  0  0  0  0  0  0  0
    2.9796   -2.0714    0.0000 C   0  0  0  0  0  0  0  0  0  0  0  0
    2.9796   -2.8964    0.0000 C   0  0  0  0  0  0  0  0  0  0  0  0
    2.2651   -3.3089    0.0000 C   0  0  0  0  0  0  0  0  0  0  0  0
    2.2651   -4.1339    0.0000 S   0  0  0  0  0  0  0  0  0  0  0  0
    2.2651   -4.9589    0.0000 O   0  0  0  0  0  0  0  0  0  0  0  0
    1.4401   -4.1339    0.0000 O   0  0  0  0  0  0  0  0  0  0  0  0
    3.0901   -4.1339    0.0000 O   0  0  0  0  0  0  0  0  0  0  0  0
  1  2  1  0  0  0  0
  1  3  2  0  0  0  0
  1  4  2  0  0  0  0
  1  5  1  0  0  0  0
  6  5  2  0  0  0  0
  7  6  1  0  0  0  0
  8  7  2  0  0  0  0
  9  8  1  0  0  0  0
  9 10  2  0  0  0  0
  5 10  1  0  0  0  0
 10 11  1  0  0  0  0
 11 12  2  0  0  0  0
 12 13  1  0  0  0  0
 13 14  2  0  0  0  0
 14  9  1  0  0  0  0
 14 15  1  0  0  0  0
 15 16  1  0  0  0  0
 15 17  2  0  0  0  0
 15 18  2  0  0  0  0
M  END
> <ChemID>
100167

> <CAS>
81-04-9

> <Original_SMILES>
OS(=O)(=O)c1cccc2c(cccc21)S(O)(=O)=O

> <preferred_name>
1,5-Naphthalenedisulfonic acid

> <dsstox_substance_id>
DTXSID5046982

> <dsstox_compound_id>
DTXCID3026982

> <qc_level>
DSSTox_Low

> <Canonical_QSARr>
OS(=O)(=O)C1=CC=CC2C(=CC=CC=21)S(O)(=O)=O

> <InChI_Code_QSARr>
InChI=1S/C10H8O6S2/c11-17(12,13)9-5-1-3-7-8(9)4-2-6-10(7)18(14,15)16/h1-6H,(H,11,12,13)(H,14,15,16)

> <InChI Key_QSARr>
XTEGVFVZDVNBPF-UHFFFAOYSA-N

> <Salt_Solvent>


> <Salt_Solvent_ID>
0

> <MPID>
100178

> <Tr_1_Tst_0>
0

> <Ready_Biodeg>
1.0

$$$$
Row161
  Mrv171c012251911052D          

 21 21  0  0  0  0            999 V2000
    4.1036   -1.0431    0.0000 C   0  0  0  0  0  0  0  0  0  0  0  0
    3.3892   -1.4556    0.0000 C   0  0  0  0  0  0  0  0  0  0  0  0
    2.9767   -0.7412    0.0000 C   0  0  0  0  0  0  0  0  0  0  0  0
    3.8017   -2.1701    0.0000 C   0  0  0  0  0  0  0  0  0  0  0  0
    2.6747   -1.8681    0.0000 C   0  0  0  0  0  0  0  0  0  0  0  0
    1.9602   -1.4556    0.0000 C   0  0  0  0  0  0  0  0  0  0  0  0
    1.9602   -0.6306    0.0000 N   0  3  0  0  0  0  0  0  0  0  0  0
    1.2457   -0.2181    0.0000 O   0  5  0  0  0  0  0  0  0  0  0  0
    2.6747   -0.2181    0.0000 O   0  0  0  0  0  0  0  0  0  0  0  0
    1.2457   -1.8681    0.0000 C   0  0  0  0  0  0  0  0  0  0  0  0
    0.5313   -1.4556    0.0000 C   0  0  0  0  0  0  0  0  0  0  0  0
    1.2457   -2.6931    0.0000 C   0  0  0  0  0  0  0  0  0  0  0  0
    0.5313   -3.1056    0.0000 N   0  3  0  0  0  0  0  0  0  0  0  0
    0.5313   -3.9306    0.0000 O   0  5  0  0  0  0  0  0  0  0  0  0
   -0.1832   -2.6931    0.0000 O   0  0  0  0  0  0  0  0  0  0  0  0
    1.9602   -3.1056    0.0000 C   0  0  0  0  0  0  0  0  0  0  0  0
    1.9602   -3.9306    0.0000 C   0  0  0  0  0  0  0  0  0  0  0  0
    2.6747   -2.6931    0.0000 C   0  0  0  0  0  0  0  0  0  0  0  0
    3.3892   -3.1056    0.0000 N   0  3  0  0  0  0  0  0  0  0  0  0
    4.1036   -2.6931    0.0000 O   0  5  0  0  0  0  0  0  0  0  0  0
    3.3892   -3.9306    0.0000 O   0  0  0  0  0  0  0  0  0  0  0  0
  1  2  1  0  0  0  0
  2  3  1  0  0  0  0
  2  4  1  0  0  0  0
  2  5  1  0  0  0  0
  6  5  1  0  0  0  0
  6  7  1  0  0  0  0
  7  8  1  0  0  0  0
  7  9  2  0  0  0  0
 10  6  2  0  0  0  0
 10 11  1  0  0  0  0
 12 10  1  0  0  0  0
 12 13  1  0  0  0  0
 13 14  1  0  0  0  0
 13 15  2  0  0  0  0
 16 12  2  0  0  0  0
 16 17  1  0  0  0  0
 18 16  1  0  0  0  0
  5 18  2  0  0  0  0
 18 19  1  0  0  0  0
 19 20  1  0  0  0  0
 19 21  2  0  0  0  0
M  CHG  6   7   1   8  -1  13   1  14  -1  19   1  20  -1
M  END
> <ChemID>
100168

> <CAS>
81-15-2

> <Original_SMILES>
CC(C)(C)c1c(c(C)c(c(C)c1[N+]([O-])=O)[N+]([O-])=O)[N+]([O-])=O

> <preferred_name>
2,4,6-Trinitro-1,3-dimethyl-5-tert-butylbenzene

> <dsstox_substance_id>
DTXSID1021405

> <dsstox_compound_id>
DTXCID901405

> <qc_level>
DSSTox_Low

> <Canonical_QSARr>
CC1=C(C(C)=C(C(=C1[N+]([O-])=O)C(C)(C)C)[N+]([O-])=O)[N+]([O-])=O

> <InChI_Code_QSARr>
InChI=1S/C12H15N3O6/c1-6-9(13(16)17)7(2)11(15(20)21)8(12(3,4)5)10(6)14(18)19/h1-5H3

> <InChI Key_QSARr>
XMWRWTSZNLOZFN-UHFFFAOYSA-N

> <Salt_Solvent>


> <Salt_Solvent_ID>
0

> <MPID>
100179

> <Tr_1_Tst_0>
1

> <Ready_Biodeg>
0.0

$$$$
Row162
  Mrv171c012251911052D          

 15 16  0  0  0  0            999 V2000
    1.4762   -1.7043    0.0000 C   0  0  0  0  0  0  0  0  0  0  0  0
    1.4762   -2.5293    0.0000 S   0  0  0  0  0  0  0  0  0  0  0  0
    1.4762   -3.3543    0.0000 O   0  0  0  0  0  0  0  0  0  0  0  0
    2.3012   -2.5293    0.0000 O   0  0  0  0  0  0  0  0  0  0  0  0
    0.6512   -2.5293    0.0000 O   0  0  0  0  0  0  0  0  0  0  0  0
    0.7617   -1.2918    0.0000 C   0  0  0  0  0  0  0  0  0  0  0  0
    0.0472   -1.7043    0.0000 N   0  0  0  0  0  0  0  0  0  0  0  0
    0.7617   -0.4668    0.0000 C   0  0  0  0  0  0  0  0  0  0  0  0
    1.4762   -0.0543    0.0000 C   0  0  0  0  0  0  0  0  0  0  0  0
    2.1907   -0.4668    0.0000 C   0  0  0  0  0  0  0  0  0  0  0  0
    2.9051   -0.0543    0.0000 C   0  0  0  0  0  0  0  0  0  0  0  0
    3.6196   -0.4668    0.0000 C   0  0  0  0  0  0  0  0  0  0  0  0
    3.6196   -1.2918    0.0000 C   0  0  0  0  0  0  0  0  0  0  0  0
    2.9051   -1.7043    0.0000 C   0  0  0  0  0  0  0  0  0  0  0  0
    2.1907   -1.2918    0.0000 C   0  0  0  0  0  0  0  0  0  0  0  0
  1  2  1  0  0  0  0
  2  3  2  0  0  0  0
  2  4  1  0  0  0  0
  2  5  2  0  0  0  0
  6  1  1  0  0  0  0
  6  7  1  0  0  0  0
  8  6  2  0  0  0  0
  9  8  1  0  0  0  0
 10  9  2  0  0  0  0
 10 11  1  0  0  0  0
 11 12  2  0  0  0  0
 12 13  1  0  0  0  0
 13 14  2  0  0  0  0
 14 15  1  0  0  0  0
  1 15  2  0  0  0  0
 15 10  1  0  0  0  0
M  END
> <ChemID>
100169

> <CAS>
81-16-3

> <Original_SMILES>
Nc1ccc2ccccc2c1S(O)(=O)=O

> <preferred_name>
2-Amino-1-naphthalenesulfonic acid

> <dsstox_substance_id>
DTXSID7020922

> <dsstox_compound_id>
DTXCID90922

> <qc_level>
DSSTox_Low

> <Canonical_QSARr>
NC1=CC=C2C=CC=CC2=C1S(O)(=O)=O

> <InChI_Code_QSARr>
InChI=1S/C10H9NO3S/c11-9-6-5-7-3-1-2-4-8(7)10(9)15(12,13)14/h1-6H,11H2,(H,12,13,14)

> <InChI Key_QSARr>
GWIAAIUASRVOIA-UHFFFAOYSA-N

> <Salt_Solvent>


> <Salt_Solvent_ID>
0

> <MPID>
100180

> <Tr_1_Tst_0>
1

> <Ready_Biodeg>
0.0

$$$$
Row163
  Mrv171c012251911052D          

 34 40  0  0  0  0            999 V2000
    7.5034   -3.4558    0.0000 O   0  0  0  0  0  0  0  0  0  0  0  0
    7.2334   -2.6762    0.0000 C   0  0  0  0  0  0  0  0  0  0  0  0
    7.7735   -2.0526    0.0000 C   0  0  0  0  0  0  0  0  0  0  0  0
    8.5836   -2.2085    0.0000 C   0  0  0  0  0  0  0  0  0  0  0  0
    9.1237   -1.5849    0.0000 C   0  0  0  0  0  0  0  0  0  0  0  0
    8.8536   -0.8053    0.0000 C   0  0  0  0  0  0  0  0  0  0  0  0
    8.0435   -0.6494    0.0000 C   0  0  0  0  0  0  0  0  0  0  0  0
    7.5034   -1.2730    0.0000 C   0  0  0  0  0  0  0  0  0  0  0  0
    6.6933   -1.1171    0.0000 C   0  0  0  0  0  0  0  0  0  0  0  0
    6.4232   -0.3376    0.0000 O   0  0  0  0  0  0  0  0  0  0  0  0
    6.1532   -1.7408    0.0000 C   0  0  0  0  0  0  0  0  0  0  0  0
    5.3431   -1.5849    0.0000 C   0  0  0  0  0  0  0  0  0  0  0  0
    4.8030   -2.2085    0.0000 C   0  0  0  0  0  0  0  0  0  0  0  0
    5.0730   -2.9880    0.0000 C   0  0  0  0  0  0  0  0  0  0  0  0
    5.8832   -3.1440    0.0000 C   0  0  0  0  0  0  0  0  0  0  0  0
    6.4232   -2.5203    0.0000 C   0  0  0  0  0  0  0  0  0  0  0  0
    3.9928   -2.0526    0.0000 N   0  0  0  0  0  0  0  0  0  0  0  0
    3.7228   -1.2730    0.0000 C   0  0  0  0  0  0  0  0  0  0  0  0
    2.9127   -1.1171    0.0000 C   0  0  0  0  0  0  0  0  0  0  0  0
    2.3726   -1.7408    0.0000 C   0  0  0  0  0  0  0  0  0  0  0  0
    2.6426   -2.5203    0.0000 O   0  0  0  0  0  0  0  0  0  0  0  0
    1.5624   -1.5849    0.0000 C   0  0  0  0  0  0  0  0  0  0  0  0
    1.0223   -2.2085    0.0000 C   0  0  0  0  0  0  0  0  0  0  0  0
    0.2122   -2.0526    0.0000 C   0  0  0  0  0  0  0  0  0  0  0  0
   -0.0578   -1.2730    0.0000 C   0  0  0  0  0  0  0  0  0  0  0  0
    0.4823   -0.6494    0.0000 C   0  0  0  0  0  0  0  0  0  0  0  0
    1.2924   -0.8053    0.0000 C   0  0  0  0  0  0  0  0  0  0  0  0
    1.8325   -0.1817    0.0000 C   0  0  0  0  0  0  0  0  0  0  0  0
    1.5624    0.5979    0.0000 O   0  0  0  0  0  0  0  0  0  0  0  0
    2.6426   -0.3376    0.0000 C   0  0  0  0  0  0  0  0  0  0  0  0
    3.1827    0.2861    0.0000 C   0  0  0  0  0  0  0  0  0  0  0  0
    3.9928    0.1302    0.0000 C   0  0  0  0  0  0  0  0  0  0  0  0
    4.2629   -0.6494    0.0000 C   0  0  0  0  0  0  0  0  0  0  0  0
    5.0730   -0.8053    0.0000 N   0  0  0  0  0  0  0  0  0  0  0  0
  1  2  2  0  0  0  0
  3  2  1  0  0  0  0
  3  4  2  0  0  0  0
  4  5  1  0  0  0  0
  5  6  2  0  0  0  0
  6  7  1  0  0  0  0
  7  8  2  0  0  0  0
  8  3  1  0  0  0  0
  9  8  1  0  0  0  0
  9 10  2  0  0  0  0
 11  9  1  0  0  0  0
 11 12  1  0  0  0  0
 13 12  2  0  0  0  0
 13 14  1  0  0  0  0
 14 15  2  0  0  0  0
 15 16  1  0  0  0  0
  2 16  1  0  0  0  0
 16 11  2  0  0  0  0
 17 13  1  0  0  0  0
 18 17  1  0  0  0  0
 18 19  1  0  0  0  0
 20 19  1  0  0  0  0
 20 21  2  0  0  0  0
 22 20  1  0  0  0  0
 22 23  1  0  0  0  0
 23 24  2  0  0  0  0
 24 25  1  0  0  0  0
 25 26  2  0  0  0  0
 26 27  1  0  0  0  0
 27 22  2  0  0  0  0
 28 27  1  0  0  0  0
 28 29  2  0  0  0  0
 30 28  1  0  0  0  0
 19 30  2  0  0  0  0
 30 31  1  0  0  0  0
 31 32  2  0  0  0  0
 32 33  1  0  0  0  0
 33 18  2  0  0  0  0
 34 33  1  0  0  0  0
 12 34  1  0  0  0  0
M  END
> <ChemID>
100170

> <CAS>
81-77-6

> <Original_SMILES>
O=C1c2c3Nc4ccc5c(c4Nc3ccc2C(=O)c2ccccc12)C(=O)c1ccccc1C5=O

> <preferred_name>
Vat Blue 4

> <dsstox_substance_id>
DTXSID2026280

> <dsstox_compound_id>
DTXCID406280

> <qc_level>
DSSTox_Low

> <Canonical_QSARr>
O=C1C2C3NC4C=CC5=C(C=4NC=3C=CC=2C(=O)C2=CC=CC=C12)C(=O)C1C=CC=CC=1C5=O

> <InChI_Code_QSARr>
InChI=1S/C28H14N2O4/c31-25-13-5-1-3-7-15(13)27(33)21-17(25)9-11-19-23(21)29-20-12-10-18-22(24(20)30-19)28(34)16-8-4-2-6-14(16)26(18)32/h1-12,29-30H

> <InChI Key_QSARr>
UHOKSCJSTAHBSO-UHFFFAOYSA-N

> <Salt_Solvent>


> <Salt_Solvent_ID>
0

> <MPID>
100181

> <Tr_1_Tst_0>
1

> <Ready_Biodeg>
0.0

$$$$
Row164
  Mrv171c012251911052D          

 18 21  0  0  0  0            999 V2000
    3.1020   -2.0668    0.0000 C   0  0  0  0  0  0  0  0  0  0  0  0
    2.3875   -2.4793    0.0000 C   0  0  0  0  0  0  0  0  0  0  0  0
    1.6730   -2.0668    0.0000 C   0  0  0  0  0  0  0  0  0  0  0  0
    0.9585   -2.4793    0.0000 C   0  0  0  0  0  0  0  0  0  0  0  0
    0.2441   -2.0668    0.0000 C   0  0  0  0  0  0  0  0  0  0  0  0
    0.2441   -1.2418    0.0000 C   0  0  0  0  0  0  0  0  0  0  0  0
    0.9585   -0.8293    0.0000 C   0  0  0  0  0  0  0  0  0  0  0  0
    1.6730   -1.2418    0.0000 C   0  0  0  0  0  0  0  0  0  0  0  0
    2.3875   -0.8293    0.0000 C   0  0  0  0  0  0  0  0  0  0  0  0
    2.3875   -0.0043    0.0000 O   0  0  0  0  0  0  0  0  0  0  0  0
    3.1020   -1.2418    0.0000 C   0  0  0  0  0  0  0  0  0  0  0  0
    3.8164   -0.8293    0.0000 C   0  0  0  0  0  0  0  0  0  0  0  0
    4.5309   -1.2418    0.0000 C   0  0  0  0  0  0  0  0  0  0  0  0
    4.5309   -2.0668    0.0000 C   0  0  0  0  0  0  0  0  0  0  0  0
    3.8164   -2.4793    0.0000 C   0  0  0  0  0  0  0  0  0  0  0  0
    0.9585   -3.3043    0.0000 C   0  0  0  0  0  0  0  0  0  0  0  0
    1.6730   -3.7168    0.0000 C   0  0  0  0  0  0  0  0  0  0  0  0
    2.3875   -3.3043    0.0000 C   0  0  0  0  0  0  0  0  0  0  0  0
  2  1  1  0  0  0  0
  2  3  2  0  0  0  0
  3  4  1  0  0  0  0
  4  5  1  0  0  0  0
  5  6  2  0  0  0  0
  6  7  1  0  0  0  0
  7  8  2  0  0  0  0
  8  3  1  0  0  0  0
  9  8  1  0  0  0  0
  9 10  2  0  0  0  0
 11  9  1  0  0  0  0
 11  1  1  0  0  0  0
 12 11  2  0  0  0  0
 13 12  1  0  0  0  0
 14 13  2  0  0  0  0
 15 14  1  0  0  0  0
  1 15  2  0  0  0  0
  4 16  2  0  0  0  0
 16 17  1  0  0  0  0
 17 18  2  0  0  0  0
 18  2  1  0  0  0  0
M  END
> <ChemID>
100171

> <CAS>
82-05-3

> <Original_SMILES>
O=C1c2cccc3cccc(c32)-c2ccccc21

> <preferred_name>
Benz[de]anthracen-7-one

> <dsstox_substance_id>
DTXSID8052566

> <dsstox_compound_id>
DTXCID5031139

> <qc_level>
DSSTox_Low

> <Canonical_QSARr>
O=C1C2=CC=CC3=CC=CC(=C32)C2=CC=CC=C21

> <InChI_Code_QSARr>
InChI=1S/C17H10O/c18-17-14-8-2-1-7-12(14)13-9-3-5-11-6-4-10-15(17)16(11)13/h1-10H

> <InChI Key_QSARr>
HUKPVYBUJRAUAG-UHFFFAOYSA-N

> <Salt_Solvent>


> <Salt_Solvent_ID>
0

> <MPID>
100182

> <Tr_1_Tst_0>
0

> <Ready_Biodeg>
0.0

$$$$
Row165
  Mrv171c012251911052D          

 17 19  0  0  0  0            999 V2000
    1.5916   -1.8606    0.0000 C   0  0  0  0  0  0  0  0  0  0  0  0
    2.3061   -2.2731    0.0000 C   0  0  0  0  0  0  0  0  0  0  0  0
    2.3061   -3.0981    0.0000 O   0  0  0  0  0  0  0  0  0  0  0  0
    3.0206   -1.8606    0.0000 C   0  0  0  0  0  0  0  0  0  0  0  0
    3.7351   -2.2731    0.0000 C   0  0  0  0  0  0  0  0  0  0  0  0
    4.4495   -1.8606    0.0000 C   0  0  0  0  0  0  0  0  0  0  0  0
    4.4495   -1.0356    0.0000 C   0  0  0  0  0  0  0  0  0  0  0  0
    3.7351   -0.6231    0.0000 C   0  0  0  0  0  0  0  0  0  0  0  0
    3.0206   -1.0356    0.0000 C   0  0  0  0  0  0  0  0  0  0  0  0
    2.3061   -0.6231    0.0000 C   0  0  0  0  0  0  0  0  0  0  0  0
    2.3061    0.2019    0.0000 O   0  0  0  0  0  0  0  0  0  0  0  0
    1.5916   -1.0356    0.0000 C   0  0  0  0  0  0  0  0  0  0  0  0
    0.8772   -0.6231    0.0000 C   0  0  0  0  0  0  0  0  0  0  0  0
    0.1627   -1.0356    0.0000 C   0  0  0  0  0  0  0  0  0  0  0  0
    0.1627   -1.8606    0.0000 C   0  0  0  0  0  0  0  0  0  0  0  0
    0.8772   -2.2731    0.0000 C   0  0  0  0  0  0  0  0  0  0  0  0
    0.8772   -3.0981    0.0000 Cl  0  0  0  0  0  0  0  0  0  0  0  0
  2  1  1  0  0  0  0
  2  3  2  0  0  0  0
  4  2  1  0  0  0  0
  4  5  1  0  0  0  0
  5  6  2  0  0  0  0
  6  7  1  0  0  0  0
  7  8  2  0  0  0  0
  8  9  1  0  0  0  0
  9  4  2  0  0  0  0
 10  9  1  0  0  0  0
 10 11  2  0  0  0  0
 12 10  1  0  0  0  0
 12  1  1  0  0  0  0
 13 12  2  0  0  0  0
 14 13  1  0  0  0  0
 15 14  2  0  0  0  0
 16 15  1  0  0  0  0
  1 16  2  0  0  0  0
 16 17  1  0  0  0  0
M  END
> <ChemID>
100172

> <CAS>
82-44-0

> <Original_SMILES>
O=C1c2cccc(Cl)c2C(=O)c2ccccc12

> <preferred_name>
1-Chloroanthraquinone

> <dsstox_substance_id>
DTXSID7052571

> <dsstox_compound_id>
DTXCID4031144

> <qc_level>
DSSTox_Low

> <Canonical_QSARr>
O=C1C2=CC=CC(Cl)=C2C(=O)C2C=CC=CC1=2

> <InChI_Code_QSARr>
InChI=1S/C14H7ClO2/c15-11-7-3-6-10-12(11)14(17)9-5-2-1-4-8(9)13(10)16/h1-7H

> <InChI Key_QSARr>
BOCJQSFSGAZAPQ-UHFFFAOYSA-N

> <Salt_Solvent>


> <Salt_Solvent_ID>
0

> <MPID>
100183

> <Tr_1_Tst_0>
1

> <Ready_Biodeg>
0.0

$$$$
Row166
  Mrv171c012251911052D          

 17 19  0  0  0  0            999 V2000
    1.5916   -1.8606    0.0000 C   0  0  0  0  0  0  0  0  0  0  0  0
    2.3061   -2.2731    0.0000 C   0  0  0  0  0  0  0  0  0  0  0  0
    2.3061   -3.0981    0.0000 O   0  0  0  0  0  0  0  0  0  0  0  0
    3.0206   -1.8606    0.0000 C   0  0  0  0  0  0  0  0  0  0  0  0
    3.7351   -2.2731    0.0000 C   0  0  0  0  0  0  0  0  0  0  0  0
    4.4495   -1.8606    0.0000 C   0  0  0  0  0  0  0  0  0  0  0  0
    4.4495   -1.0356    0.0000 C   0  0  0  0  0  0  0  0  0  0  0  0
    3.7351   -0.6231    0.0000 C   0  0  0  0  0  0  0  0  0  0  0  0
    3.0206   -1.0356    0.0000 C   0  0  0  0  0  0  0  0  0  0  0  0
    2.3061   -0.6231    0.0000 C   0  0  0  0  0  0  0  0  0  0  0  0
    2.3061    0.2019    0.0000 O   0  0  0  0  0  0  0  0  0  0  0  0
    1.5916   -1.0356    0.0000 C   0  0  0  0  0  0  0  0  0  0  0  0
    0.8772   -0.6231    0.0000 C   0  0  0  0  0  0  0  0  0  0  0  0
    0.1627   -1.0356    0.0000 C   0  0  0  0  0  0  0  0  0  0  0  0
    0.1627   -1.8606    0.0000 C   0  0  0  0  0  0  0  0  0  0  0  0
    0.8772   -2.2731    0.0000 C   0  0  0  0  0  0  0  0  0  0  0  0
    0.8772   -3.0981    0.0000 N   0  0  0  0  0  0  0  0  0  0  0  0
  2  1  1  0  0  0  0
  2  3  2  0  0  0  0
  4  2  1  0  0  0  0
  4  5  1  0  0  0  0
  5  6  2  0  0  0  0
  6  7  1  0  0  0  0
  7  8  2  0  0  0  0
  8  9  1  0  0  0  0
  9  4  2  0  0  0  0
 10  9  1  0  0  0  0
 10 11  2  0  0  0  0
 12 10  1  0  0  0  0
 12  1  1  0  0  0  0
 13 12  2  0  0  0  0
 14 13  1  0  0  0  0
 15 14  2  0  0  0  0
 16 15  1  0  0  0  0
  1 16  2  0  0  0  0
 16 17  1  0  0  0  0
M  END
> <ChemID>
100173

> <CAS>
82-45-1

> <Original_SMILES>
Nc1cccc2c1C(=O)c1ccccc1C2=O

> <preferred_name>
1-Aminoanthraquinone

> <dsstox_substance_id>
DTXSID2052572

> <dsstox_compound_id>
DTXCID9031145

> <qc_level>
DSSTox_Low

> <Canonical_QSARr>
NC1C=CC=C2C=1C(=O)C1C=CC=CC=1C2=O

> <InChI_Code_QSARr>
InChI=1S/C14H9NO2/c15-11-7-3-6-10-12(11)14(17)9-5-2-1-4-8(9)13(10)16/h1-7H,15H2

> <InChI Key_QSARr>
KHUFHLFHOQVFGB-UHFFFAOYSA-N

> <Salt_Solvent>


> <Salt_Solvent_ID>
0

> <MPID>
100184

> <Tr_1_Tst_0>
1

> <Ready_Biodeg>
0.0

$$$$
Row167
  Mrv171c012251911052D          

 20 22  0  0  0  0            999 V2000
    2.8579    0.7425    0.0000 C   0  0  0  0  0  0  0  0  0  0  0  0
    3.5724    0.3300    0.0000 C   0  0  0  0  0  0  0  0  0  0  0  0
    3.5724   -0.4950    0.0000 S   0  0  0  0  0  0  0  0  0  0  0  0
    3.5724   -1.3200    0.0000 O   0  0  0  0  0  0  0  0  0  0  0  0
    4.3974   -0.4950    0.0000 O   0  0  0  0  0  0  0  0  0  0  0  0
    2.7474   -0.4950    0.0000 O   0  0  0  0  0  0  0  0  0  0  0  0
    4.2868    0.7425    0.0000 C   0  0  0  0  0  0  0  0  0  0  0  0
    4.2868    1.5675    0.0000 C   0  0  0  0  0  0  0  0  0  0  0  0
    3.5724    1.9800    0.0000 C   0  0  0  0  0  0  0  0  0  0  0  0
    2.8579    1.5675    0.0000 C   0  0  0  0  0  0  0  0  0  0  0  0
    2.1434    1.9800    0.0000 C   0  0  0  0  0  0  0  0  0  0  0  0
    2.1434    2.8050    0.0000 O   0  0  0  0  0  0  0  0  0  0  0  0
    1.4289    1.5675    0.0000 C   0  0  0  0  0  0  0  0  0  0  0  0
    1.4289    0.7425    0.0000 C   0  0  0  0  0  0  0  0  0  0  0  0
    0.7145    0.3300    0.0000 C   0  0  0  0  0  0  0  0  0  0  0  0
    0.0000    0.7425    0.0000 C   0  0  0  0  0  0  0  0  0  0  0  0
    0.0000    1.5675    0.0000 C   0  0  0  0  0  0  0  0  0  0  0  0
    0.7145    1.9800    0.0000 C   0  0  0  0  0  0  0  0  0  0  0  0
    2.1434    0.3300    0.0000 C   0  0  0  0  0  0  0  0  0  0  0  0
    2.1434   -0.4950    0.0000 O   0  0  0  0  0  0  0  0  0  0  0  0
  2  1  1  0  0  0  0
  2  3  1  0  0  0  0
  3  4  2  0  0  0  0
  3  5  2  0  0  0  0
  3  6  1  0  0  0  0
  7  2  2  0  0  0  0
  8  7  1  0  0  0  0
  9  8  2  0  0  0  0
 10  9  1  0  0  0  0
 10  1  2  0  0  0  0
 11 10  1  0  0  0  0
 11 12  2  0  0  0  0
 13 11  1  0  0  0  0
 13 14  1  0  0  0  0
 14 15  2  0  0  0  0
 15 16  1  0  0  0  0
 16 17  2  0  0  0  0
 17 18  1  0  0  0  0
 18 13  2  0  0  0  0
 19 14  1  0  0  0  0
  1 19  1  0  0  0  0
 19 20  2  0  0  0  0
M  END
> <ChemID>
100174

> <CAS>
82-49-5

> <Original_SMILES>
OS(=O)(=O)c1cccc2c1C(=O)c1ccccc1C2=O

> <preferred_name>
1-Anthracenesulfonic acid, 9,10-dihydro-9,10-dioxo-

> <dsstox_substance_id>
DTXSID8058877

> <dsstox_compound_id>
DTXCID6048254

> <qc_level>
Public_High

> <Canonical_QSARr>
OS(=O)(=O)C1=CC=CC2=C1C(=O)C1=CC=CC=C1C2=O

> <InChI_Code_QSARr>
InChI=1S/C14H8O5S/c15-13-8-4-1-2-5-9(8)14(16)12-10(13)6-3-7-11(12)20(17,18)19/h1-7H,(H,17,18,19)

> <InChI Key_QSARr>
JAJIPIAHCFBEPI-UHFFFAOYSA-N

> <Salt_Solvent>


> <Salt_Solvent_ID>
0

> <MPID>
100185

> <Tr_1_Tst_0>
1

> <Ready_Biodeg>
0.0

$$$$
Row168
  Mrv171c012251911052D          

 14 14  0  0  0  0            999 V2000
    2.9381   -0.4551    0.0000 Cl  0  0  0  0  0  0  0  0  0  0  0  0
    2.2237   -0.8676    0.0000 C   0  0  0  0  0  0  0  0  0  0  0  0
    1.5092   -0.4551    0.0000 C   0  0  0  0  0  0  0  0  0  0  0  0
    1.5092    0.3699    0.0000 Cl  0  0  0  0  0  0  0  0  0  0  0  0
    0.7947   -0.8676    0.0000 C   0  0  0  0  0  0  0  0  0  0  0  0
    0.0802   -0.4551    0.0000 Cl  0  0  0  0  0  0  0  0  0  0  0  0
    0.7947   -1.6926    0.0000 C   0  0  0  0  0  0  0  0  0  0  0  0
    0.0802   -2.1051    0.0000 Cl  0  0  0  0  0  0  0  0  0  0  0  0
    1.5092   -2.1051    0.0000 C   0  0  0  0  0  0  0  0  0  0  0  0
    1.5092   -2.9301    0.0000 Cl  0  0  0  0  0  0  0  0  0  0  0  0
    2.2237   -1.6926    0.0000 C   0  0  0  0  0  0  0  0  0  0  0  0
    2.9381   -2.1051    0.0000 N   0  3  0  0  0  0  0  0  0  0  0  0
    3.6526   -1.6926    0.0000 O   0  5  0  0  0  0  0  0  0  0  0  0
    2.9381   -2.9301    0.0000 O   0  0  0  0  0  0  0  0  0  0  0  0
  1  2  1  0  0  0  0
  3  2  1  0  0  0  0
  3  4  1  0  0  0  0
  5  3  2  0  0  0  0
  5  6  1  0  0  0  0
  7  5  1  0  0  0  0
  7  8  1  0  0  0  0
  9  7  2  0  0  0  0
  9 10  1  0  0  0  0
 11  9  1  0  0  0  0
  2 11  2  0  0  0  0
 11 12  1  0  0  0  0
 12 13  1  0  0  0  0
 12 14  2  0  0  0  0
M  CHG  2  12   1  13  -1
M  END
> <ChemID>
100175

> <CAS>
82-68-8

> <Original_SMILES>
[O-][N+](=O)c1c(Cl)c(Cl)c(Cl)c(Cl)c1Cl

> <preferred_name>
Pentachloronitrobenzene

> <dsstox_substance_id>
DTXSID2021105

> <dsstox_compound_id>
DTXCID301105

> <qc_level>
DSSTox_Low

> <Canonical_QSARr>
[O-][N+](=O)C1C(Cl)=C(Cl)C(Cl)=C(Cl)C=1Cl

> <InChI_Code_QSARr>
InChI=1S/C6Cl5NO2/c7-1-2(8)4(10)6(12(13)14)5(11)3(1)9

> <InChI Key_QSARr>
LKPLKUMXSAEKID-UHFFFAOYSA-N

> <Salt_Solvent>


> <Salt_Solvent_ID>
0

> <MPID>
100186

> <Tr_1_Tst_0>
0

> <Ready_Biodeg>
0.0

$$$$
Row169
  Mrv171c012251911052D          

 15 16  0  0  0  0            999 V2000
    0.4287   -1.6225    0.0000 C   0  0  0  0  0  0  0  0  0  0  0  0
   -0.2858   -1.2100    0.0000 C   0  0  0  0  0  0  0  0  0  0  0  0
   -0.2858   -0.3850    0.0000 N   0  0  0  0  0  0  0  0  0  0  0  0
   -1.0003   -1.6225    0.0000 C   0  0  0  0  0  0  0  0  0  0  0  0
   -1.0003   -2.4475    0.0000 C   0  0  0  0  0  0  0  0  0  0  0  0
   -0.2858   -2.8600    0.0000 C   0  0  0  0  0  0  0  0  0  0  0  0
    0.4287   -2.4475    0.0000 C   0  0  0  0  0  0  0  0  0  0  0  0
    1.1431   -2.8600    0.0000 C   0  0  0  0  0  0  0  0  0  0  0  0
    1.8576   -2.4475    0.0000 C   0  0  0  0  0  0  0  0  0  0  0  0
    1.8576   -1.6225    0.0000 C   0  0  0  0  0  0  0  0  0  0  0  0
    1.1431   -1.2100    0.0000 C   0  0  0  0  0  0  0  0  0  0  0  0
    1.1431   -0.3850    0.0000 S   0  0  0  0  0  0  0  0  0  0  0  0
    1.1431    0.4400    0.0000 O   0  0  0  0  0  0  0  0  0  0  0  0
    1.9681   -0.3850    0.0000 O   0  0  0  0  0  0  0  0  0  0  0  0
    0.3181   -0.3850    0.0000 O   0  0  0  0  0  0  0  0  0  0  0  0
  2  1  1  0  0  0  0
  2  3  1  0  0  0  0
  4  2  2  0  0  0  0
  5  4  1  0  0  0  0
  6  5  2  0  0  0  0
  7  6  1  0  0  0  0
  7  1  1  0  0  0  0
  8  7  2  0  0  0  0
  9  8  1  0  0  0  0
 10  9  2  0  0  0  0
 11 10  1  0  0  0  0
  1 11  2  0  0  0  0
 11 12  1  0  0  0  0
 12 13  2  0  0  0  0
 12 14  2  0  0  0  0
 12 15  1  0  0  0  0
M  END
> <ChemID>
100176

> <CAS>
82-75-7

> <Original_SMILES>
Nc1cccc2cccc(c21)S(O)(=O)=O

> <preferred_name>
1-Naphthalenesulfonic acid, 8-amino-

> <dsstox_substance_id>
DTXSID2058881

> <dsstox_compound_id>
DTXCID6048258

> <qc_level>
Public_High

> <Canonical_QSARr>
NC1=CC=CC2=CC=CC(=C21)S(O)(=O)=O

> <InChI_Code_QSARr>
InChI=1S/C10H9NO3S/c11-8-5-1-3-7-4-2-6-9(10(7)8)15(12,13)14/h1-6H,11H2,(H,12,13,14)

> <InChI Key_QSARr>
CYJJLCDCWVZEDZ-UHFFFAOYSA-N

> <Salt_Solvent>


> <Salt_Solvent_ID>
0

> <MPID>
100187

> <Tr_1_Tst_0>
1

> <Ready_Biodeg>
0.0

$$$$
Row170
  Mrv171c012251911052D          

 12 14  0  0  0  0            999 V2000
    0.0158   -0.8857    0.0000 C   0  0  0  0  0  0  0  0  0  0  0  0
    0.7694   -0.5501    0.0000 C   0  0  0  0  0  0  0  0  0  0  0  0
    1.0244    0.2345    0.0000 C   0  0  0  0  0  0  0  0  0  0  0  0
    1.8494    0.2345    0.0000 C   0  0  0  0  0  0  0  0  0  0  0  0
    2.1043   -0.5501    0.0000 C   0  0  0  0  0  0  0  0  0  0  0  0
    1.4369   -1.0350    0.0000 C   0  0  0  0  0  0  0  0  0  0  0  0
    1.3506   -1.8555    0.0000 C   0  0  0  0  0  0  0  0  0  0  0  0
    2.2768   -2.1911    0.0000 C   0  0  0  0  0  0  0  0  0  0  0  0
    2.9442   -1.7061    0.0000 C   0  0  0  0  0  0  0  0  0  0  0  0
    2.8580   -0.8857    0.0000 C   0  0  0  0  0  0  0  0  0  0  0  0
    0.5970   -2.1911    0.0000 C   0  0  0  0  0  0  0  0  0  0  0  0
   -0.0705   -1.7061    0.0000 C   0  0  0  0  0  0  0  0  0  0  0  0
  2  1  1  0  0  0  0
  2  3  1  0  0  0  0
  3  4  1  0  0  0  0
  4  5  1  0  0  0  0
  5  6  1  0  0  0  0
  6  2  2  0  0  0  0
  6  7  1  0  0  0  0
  7  8  1  0  0  0  0
  8  9  2  0  0  0  0
  9 10  1  0  0  0  0
 10  5  2  0  0  0  0
 11  7  2  0  0  0  0
 12 11  1  0  0  0  0
  1 12  2  0  0  0  0
M  END
> <ChemID>
100177

> <CAS>
83-32-9

> <Original_SMILES>
C1Cc2cccc3cccc1c23

> <preferred_name>
Acenaphthene

> <dsstox_substance_id>
DTXSID3021774

> <dsstox_compound_id>
DTXCID201774

> <qc_level>
DSSTox_Low

> <Canonical_QSARr>
C1CC2=CC=CC3=CC=CC1=C23

> <InChI_Code_QSARr>
InChI=1S/C12H10/c1-3-9-4-2-6-11-8-7-10(5-1)12(9)11/h1-6H,7-8H2

> <InChI Key_QSARr>
CWRYPZZKDGJXCA-UHFFFAOYSA-N

> <Salt_Solvent>


> <Salt_Solvent_ID>
0

> <MPID>
100188

> <Tr_1_Tst_0>
1

> <Ready_Biodeg>
0.0

$$$$
Row171
  Mrv171c012251911052D          

 10 10  0  0  0  0            999 V2000
    3.0251   -1.2112    0.0000 Cl  0  0  0  0  0  0  0  0  0  0  0  0
    2.3106   -1.6237    0.0000 C   0  0  0  0  0  0  0  0  0  0  0  0
    1.5962   -1.2112    0.0000 C   0  0  0  0  0  0  0  0  0  0  0  0
    1.5962   -0.3862    0.0000 C   0  0  0  0  0  0  0  0  0  0  0  0
    0.8817    0.0263    0.0000 O   0  0  0  0  0  0  0  0  0  0  0  0
    0.8817   -1.6237    0.0000 C   0  0  0  0  0  0  0  0  0  0  0  0
    0.1672   -1.2112    0.0000 Cl  0  0  0  0  0  0  0  0  0  0  0  0
    0.8817   -2.4487    0.0000 C   0  0  0  0  0  0  0  0  0  0  0  0
    1.5962   -2.8612    0.0000 C   0  0  0  0  0  0  0  0  0  0  0  0
    2.3106   -2.4487    0.0000 C   0  0  0  0  0  0  0  0  0  0  0  0
  1  2  1  0  0  0  0
  3  2  1  0  0  0  0
  3  4  1  0  0  0  0
  4  5  2  0  0  0  0
  6  3  2  0  0  0  0
  6  7  1  0  0  0  0
  8  6  1  0  0  0  0
  9  8  2  0  0  0  0
 10  9  1  0  0  0  0
  2 10  2  0  0  0  0
M  END
> <ChemID>
100178

> <CAS>
83-38-5

> <Original_SMILES>
O=Cc1c(Cl)cccc1Cl

> <preferred_name>
2,6-Dichlorobenzaldehyde

> <dsstox_substance_id>
DTXSID5024970

> <dsstox_compound_id>
DTXCID304970

> <qc_level>
DSSTox_Low

> <Canonical_QSARr>
O=CC1C(Cl)=CC=CC=1Cl

> <InChI_Code_QSARr>
InChI=1S/C7H4Cl2O/c8-6-2-1-3-7(9)5(6)4-10/h1-4H

> <InChI Key_QSARr>
DMIYKWPEFRFTPY-UHFFFAOYSA-N

> <Salt_Solvent>


> <Salt_Solvent_ID>
0

> <MPID>
100189

> <Tr_1_Tst_0>
1

> <Ready_Biodeg>
0.0

$$$$
Row172
  Mrv171c012251911052D          

 11 11  0  0  0  0            999 V2000
    0.8408   -1.9157    0.0000 C   0  0  0  0  0  0  0  0  0  0  0  0
    1.5553   -2.3282    0.0000 C   0  0  0  0  0  0  0  0  0  0  0  0
    2.2697   -1.9157    0.0000 C   0  0  0  0  0  0  0  0  0  0  0  0
    2.2697   -1.0907    0.0000 C   0  0  0  0  0  0  0  0  0  0  0  0
    1.5553   -0.6782    0.0000 C   0  0  0  0  0  0  0  0  0  0  0  0
    1.5553    0.1468    0.0000 C   0  0  0  0  0  0  0  0  0  0  0  0
    0.8408   -1.0907    0.0000 C   0  0  0  0  0  0  0  0  0  0  0  0
    0.1263   -0.6782    0.0000 O   0  0  0  0  0  0  0  0  0  0  0  0
    0.1263   -2.3282    0.0000 C   0  0  0  0  0  0  0  0  0  0  0  0
    0.1263   -3.1532    0.0000 O   0  0  0  0  0  0  0  0  0  0  0  0
   -0.5882   -1.9157    0.0000 O   0  0  0  0  0  0  0  0  0  0  0  0
  2  1  2  0  0  0  0
  3  2  1  0  0  0  0
  4  3  2  0  0  0  0
  5  4  1  0  0  0  0
  5  6  1  0  0  0  0
  7  5  2  0  0  0  0
  1  7  1  0  0  0  0
  7  8  1  0  0  0  0
  1  9  1  0  0  0  0
  9 10  1  0  0  0  0
  9 11  2  0  0  0  0
M  END
> <ChemID>
100179

> <CAS>
83-40-9

> <Original_SMILES>
Cc1cccc(C(O)=O)c1O

> <preferred_name>
2-Hydroxy-3-methylbenzoic acid

> <dsstox_substance_id>
DTXSID9038686

> <dsstox_compound_id>
DTXCID7018686

> <qc_level>
DSSTox_Low

> <Canonical_QSARr>
CC1C=CC=C(C(O)=O)C=1O

> <InChI_Code_QSARr>
InChI=1S/C8H8O3/c1-5-3-2-4-6(7(5)9)8(10)11/h2-4,9H,1H3,(H,10,11)

> <InChI Key_QSARr>
WHSXTWFYRGOBGO-UHFFFAOYSA-N

> <Salt_Solvent>


> <Salt_Solvent_ID>
0

> <MPID>
100190

> <Tr_1_Tst_0>
0

> <Ready_Biodeg>
0.0

$$$$
Row173
  Mrv171c012251911052D          

 18 20  0  0  0  0            999 V2000
    2.7838   -0.7314    0.0000 C   0  0  0  0  0  0  0  0  0  0  0  0
    2.7838    0.0936    0.0000 O   0  0  0  0  0  0  0  0  0  0  0  0
    3.4983   -1.1439    0.0000 C   0  0  0  0  0  0  0  0  0  0  0  0
    4.2128   -0.7314    0.0000 C   0  0  0  0  0  0  0  0  0  0  0  0
    4.9272   -1.1439    0.0000 C   0  0  0  0  0  0  0  0  0  0  0  0
    4.9272   -1.9689    0.0000 C   0  0  0  0  0  0  0  0  0  0  0  0
    4.2128   -2.3814    0.0000 C   0  0  0  0  0  0  0  0  0  0  0  0
    3.4983   -1.9689    0.0000 C   0  0  0  0  0  0  0  0  0  0  0  0
    2.7838   -2.3814    0.0000 C   0  0  0  0  0  0  0  0  0  0  0  0
    2.7838   -3.2064    0.0000 O   0  0  0  0  0  0  0  0  0  0  0  0
    2.0693   -1.9689    0.0000 C   0  0  0  0  0  0  0  0  0  0  0  0
    1.3549   -2.3814    0.0000 C   0  0  0  0  0  0  0  0  0  0  0  0
    0.6404   -1.9689    0.0000 C   0  0  0  0  0  0  0  0  0  0  0  0
   -0.0741   -2.3814    0.0000 C   0  0  0  0  0  0  0  0  0  0  0  0
   -0.0741   -3.2064    0.0000 C   0  0  0  0  0  0  0  0  0  0  0  0
    0.6404   -1.1439    0.0000 C   0  0  0  0  0  0  0  0  0  0  0  0
    1.3549   -0.7314    0.0000 C   0  0  0  0  0  0  0  0  0  0  0  0
    2.0693   -1.1439    0.0000 C   0  0  0  0  0  0  0  0  0  0  0  0
  1  2  2  0  0  0  0
  3  1  1  0  0  0  0
  3  4  1  0  0  0  0
  4  5  2  0  0  0  0
  5  6  1  0  0  0  0
  6  7  2  0  0  0  0
  7  8  1  0  0  0  0
  8  3  2  0  0  0  0
  9  8  1  0  0  0  0
  9 10  2  0  0  0  0
 11  9  1  0  0  0  0
 11 12  1  0  0  0  0
 12 13  2  0  0  0  0
 13 14  1  0  0  0  0
 14 15  1  0  0  0  0
 13 16  1  0  0  0  0
 16 17  2  0  0  0  0
 17 18  1  0  0  0  0
  1 18  1  0  0  0  0
 18 11  2  0  0  0  0
M  END
> <ChemID>
100180

> <CAS>
84-51-5

> <Original_SMILES>
CCc1cc2c(cc1)C(=O)c1ccccc1C2=O

> <preferred_name>
2-Ethylanthracene-9,10-dione

> <dsstox_substance_id>
DTXSID5044994

> <dsstox_compound_id>
DTXCID3024994

> <qc_level>
DSSTox_Low

> <Canonical_QSARr>
CCC1=CC2=C(C=C1)C(=O)C1C=CC=CC=1C2=O

> <InChI_Code_QSARr>
InChI=1S/C16H12O2/c1-2-10-7-8-13-14(9-10)16(18)12-6-4-3-5-11(12)15(13)17/h3-9H,2H2,1H3

> <InChI Key_QSARr>
SJEBAWHUJDUKQK-UHFFFAOYSA-N

> <Salt_Solvent>


> <Salt_Solvent_ID>
0

> <MPID>
100191

> <Tr_1_Tst_0>
1

> <Ready_Biodeg>
0.0

$$$$
Row174
  Mrv171c012251911052D          

 24 26  0  0  0  0            999 V2000
    1.2282   -4.3234    0.0000 O   0  0  0  0  0  0  0  0  0  0  0  0
    1.9427   -3.9109    0.0000 C   0  0  0  0  0  0  0  0  0  0  0  0
    2.6571   -4.3234    0.0000 C   0  0  0  0  0  0  0  0  0  0  0  0
    2.6571   -5.1484    0.0000 C   0  0  0  0  0  0  0  0  0  0  0  0
    3.3716   -5.5609    0.0000 C   0  0  0  0  0  0  0  0  0  0  0  0
    4.0861   -5.1484    0.0000 C   0  0  0  0  0  0  0  0  0  0  0  0
    4.0861   -4.3234    0.0000 C   0  0  0  0  0  0  0  0  0  0  0  0
    3.3716   -3.9109    0.0000 C   0  0  0  0  0  0  0  0  0  0  0  0
    3.3716   -3.0859    0.0000 C   0  0  0  0  0  0  0  0  0  0  0  0
    4.0861   -2.6734    0.0000 O   0  0  0  0  0  0  0  0  0  0  0  0
    4.0861   -1.8484    0.0000 C   0  0  0  0  0  0  0  0  0  0  0  0
    4.8006   -1.4359    0.0000 C   0  0  0  0  0  0  0  0  0  0  0  0
    4.8006   -0.6109    0.0000 C   0  0  0  0  0  0  0  0  0  0  0  0
    4.0861   -0.1984    0.0000 C   0  0  0  0  0  0  0  0  0  0  0  0
    3.3716   -0.6109    0.0000 C   0  0  0  0  0  0  0  0  0  0  0  0
    3.3716   -1.4359    0.0000 C   0  0  0  0  0  0  0  0  0  0  0  0
    2.6571   -2.6734    0.0000 O   0  0  0  0  0  0  0  0  0  0  0  0
    1.9427   -3.0859    0.0000 O   0  0  0  0  0  0  0  0  0  0  0  0
    1.2282   -2.6734    0.0000 C   0  0  0  0  0  0  0  0  0  0  0  0
    1.2282   -1.8484    0.0000 C   0  0  0  0  0  0  0  0  0  0  0  0
    0.5137   -1.4359    0.0000 C   0  0  0  0  0  0  0  0  0  0  0  0
   -0.2007   -1.8484    0.0000 C   0  0  0  0  0  0  0  0  0  0  0  0
   -0.2007   -2.6734    0.0000 C   0  0  0  0  0  0  0  0  0  0  0  0
    0.5137   -3.0859    0.0000 C   0  0  0  0  0  0  0  0  0  0  0  0
  1  2  2  0  0  0  0
  2  3  1  0  0  0  0
  4  3  1  0  0  0  0
  5  4  2  0  0  0  0
  6  5  1  0  0  0  0
  7  6  2  0  0  0  0
  8  7  1  0  0  0  0
  3  8  2  0  0  0  0
  8  9  1  0  0  0  0
  9 10  1  0  0  0  0
 10 11  1  0  0  0  0
 12 11  1  0  0  0  0
 13 12  1  0  0  0  0
 14 13  1  0  0  0  0
 15 14  1  0  0  0  0
 16 15  1  0  0  0  0
 11 16  1  0  0  0  0
  9 17  2  0  0  0  0
  2 18  1  0  0  0  0
 18 19  1  0  0  0  0
 20 19  1  0  0  0  0
 21 20  1  0  0  0  0
 22 21  1  0  0  0  0
 23 22  1  0  0  0  0
 24 23  1  0  0  0  0
 19 24  1  0  0  0  0
M  END
> <ChemID>
100181

> <CAS>
84-61-7

> <Original_SMILES>
O=C(OC1CCCCC1)c1ccccc1C(=O)OC1CCCCC1

> <preferred_name>
Dicyclohexyl phthalate

> <dsstox_substance_id>
DTXSID5025021

> <dsstox_compound_id>
DTXCID505021

> <qc_level>
DSSTox_Low

> <Canonical_QSARr>
O=C(OC1CCCCC1)C1C=CC=CC=1C(=O)OC1CCCCC1

> <InChI_Code_QSARr>
InChI=1S/C20H26O4/c21-19(23-15-9-3-1-4-10-15)17-13-7-8-14-18(17)20(22)24-16-11-5-2-6-12-16/h7-8,13-16H,1-6,9-12H2

> <InChI Key_QSARr>
VOWAEIGWURALJQ-UHFFFAOYSA-N

> <Salt_Solvent>


> <Salt_Solvent_ID>
0

> <MPID>
100192

> <Tr_1_Tst_0>
1

> <Ready_Biodeg>
1.0

$$$$
Row175
  Mrv171c012251911052D          

 16 18  0  0  0  0            999 V2000
    1.4289   -0.4127    0.0000 O   0  0  0  0  0  0  0  0  0  0  0  0
    1.4289   -1.2377    0.0000 C   0  0  0  0  0  0  0  0  0  0  0  0
    2.1434   -1.6502    0.0000 C   0  0  0  0  0  0  0  0  0  0  0  0
    2.8579   -1.2377    0.0000 C   0  0  0  0  0  0  0  0  0  0  0  0
    3.5723   -1.6502    0.0000 C   0  0  0  0  0  0  0  0  0  0  0  0
    3.5723   -2.4752    0.0000 C   0  0  0  0  0  0  0  0  0  0  0  0
    2.8579   -2.8877    0.0000 C   0  0  0  0  0  0  0  0  0  0  0  0
    2.1434   -2.4752    0.0000 C   0  0  0  0  0  0  0  0  0  0  0  0
    1.4289   -2.8877    0.0000 C   0  0  0  0  0  0  0  0  0  0  0  0
    1.4289   -3.7127    0.0000 O   0  0  0  0  0  0  0  0  0  0  0  0
    0.7145   -2.4752    0.0000 C   0  0  0  0  0  0  0  0  0  0  0  0
   -0.0000   -2.8877    0.0000 C   0  0  0  0  0  0  0  0  0  0  0  0
   -0.7145   -2.4752    0.0000 C   0  0  0  0  0  0  0  0  0  0  0  0
   -0.7145   -1.6502    0.0000 C   0  0  0  0  0  0  0  0  0  0  0  0
   -0.0000   -1.2377    0.0000 C   0  0  0  0  0  0  0  0  0  0  0  0
    0.7145   -1.6502    0.0000 C   0  0  0  0  0  0  0  0  0  0  0  0
  1  2  2  0  0  0  0
  3  2  1  0  0  0  0
  3  4  1  0  0  0  0
  4  5  2  0  0  0  0
  5  6  1  0  0  0  0
  6  7  2  0  0  0  0
  7  8  1  0  0  0  0
  8  3  2  0  0  0  0
  9  8  1  0  0  0  0
  9 10  2  0  0  0  0
 11  9  1  0  0  0  0
 11 12  1  0  0  0  0
 12 13  2  0  0  0  0
 13 14  1  0  0  0  0
 14 15  2  0  0  0  0
 15 16  1  0  0  0  0
  2 16  1  0  0  0  0
 16 11  2  0  0  0  0
M  END
> <ChemID>
100182

> <CAS>
84-65-1

> <Original_SMILES>
O=C1c2ccccc2C(=O)c2ccccc12

> <preferred_name>
Anthraquinone

> <dsstox_substance_id>
DTXSID3020095

> <dsstox_compound_id>
DTXCID9095

> <qc_level>
DSSTox_Low

> <Canonical_QSARr>
O=C1C2C=CC=CC=2C(=O)C2C=CC=CC1=2

> <InChI_Code_QSARr>
InChI=1S/C14H8O2/c15-13-9-5-1-2-6-10(9)14(16)12-8-4-3-7-11(12)13/h1-8H

> <InChI Key_QSARr>
RZVHIXYEVGDQDX-UHFFFAOYSA-N

> <Salt_Solvent>


> <Salt_Solvent_ID>
0

> <MPID>
100193

> <Tr_1_Tst_0>
1

> <Ready_Biodeg>
1.0

$$$$
Row176
  Mrv171c012251911052D          

 16 16  0  0  0  0            999 V2000
    4.8210   -3.4038    0.0000 C   0  0  0  0  0  0  0  0  0  0  0  0
    4.1066   -2.9913    0.0000 C   0  0  0  0  0  0  0  0  0  0  0  0
    3.3921   -3.4038    0.0000 O   0  0  0  0  0  0  0  0  0  0  0  0
    2.6776   -2.9913    0.0000 C   0  0  0  0  0  0  0  0  0  0  0  0
    1.9631   -3.4038    0.0000 C   0  0  0  0  0  0  0  0  0  0  0  0
    1.2487   -2.9913    0.0000 C   0  0  0  0  0  0  0  0  0  0  0  0
    1.2487   -2.1663    0.0000 C   0  0  0  0  0  0  0  0  0  0  0  0
    0.5342   -1.7538    0.0000 O   0  0  0  0  0  0  0  0  0  0  0  0
    0.5342   -0.9288    0.0000 C   0  0  0  0  0  0  0  0  0  0  0  0
   -0.1803   -0.5163    0.0000 C   0  0  0  0  0  0  0  0  0  0  0  0
    1.9631   -1.7538    0.0000 O   0  0  0  0  0  0  0  0  0  0  0  0
    0.5342   -3.4038    0.0000 C   0  0  0  0  0  0  0  0  0  0  0  0
    0.5342   -4.2288    0.0000 C   0  0  0  0  0  0  0  0  0  0  0  0
    1.2487   -4.6413    0.0000 C   0  0  0  0  0  0  0  0  0  0  0  0
    1.9631   -4.2288    0.0000 C   0  0  0  0  0  0  0  0  0  0  0  0
    2.6776   -2.1663    0.0000 O   0  0  0  0  0  0  0  0  0  0  0  0
  1  2  1  0  0  0  0
  2  3  1  0  0  0  0
  3  4  1  0  0  0  0
  4  5  1  0  0  0  0
  6  5  1  0  0  0  0
  6  7  1  0  0  0  0
  7  8  1  0  0  0  0
  8  9  1  0  0  0  0
  9 10  1  0  0  0  0
  7 11  2  0  0  0  0
 12  6  2  0  0  0  0
 13 12  1  0  0  0  0
 14 13  2  0  0  0  0
 15 14  1  0  0  0  0
  5 15  2  0  0  0  0
  4 16  2  0  0  0  0
M  END
> <ChemID>
100183

> <CAS>
84-66-2

> <Original_SMILES>
CCOC(=O)c1ccccc1C(=O)OCC

> <preferred_name>
Diethyl phthalate

> <dsstox_substance_id>
DTXSID7021780

> <dsstox_compound_id>
DTXCID901780

> <qc_level>
DSSTox_Low

> <Canonical_QSARr>
CCOC(=O)C1=CC=CC=C1C(=O)OCC

> <InChI_Code_QSARr>
InChI=1S/C12H14O4/c1-3-15-11(13)9-7-5-6-8-10(9)12(14)16-4-2/h5-8H,3-4H2,1-2H3

> <InChI Key_QSARr>
FLKPEMZONWLCSK-UHFFFAOYSA-N

> <Salt_Solvent>


> <Salt_Solvent_ID>
0

> <MPID>
100194

> <Tr_1_Tst_0>
0

> <Ready_Biodeg>
0.0

$$$$
Row177
  Mrv171c012251911052D          

 20 20  0  0  0  0            999 V2000
    2.0252   -3.3889    0.0000 C   0  0  0  0  0  0  0  0  0  0  0  0
    2.0252   -2.5639    0.0000 C   0  0  0  0  0  0  0  0  0  0  0  0
    2.7397   -2.1514    0.0000 O   0  0  0  0  0  0  0  0  0  0  0  0
    1.3107   -2.1514    0.0000 O   0  0  0  0  0  0  0  0  0  0  0  0
    1.3107   -1.3264    0.0000 C   0  0  0  0  0  0  0  0  0  0  0  0
    0.5962   -0.9139    0.0000 C   0  0  0  0  0  0  0  0  0  0  0  0
    0.5962   -0.0889    0.0000 C   0  0  0  0  0  0  0  0  0  0  0  0
   -0.1182   -1.3264    0.0000 C   0  0  0  0  0  0  0  0  0  0  0  0
    1.3107   -3.8014    0.0000 C   0  0  0  0  0  0  0  0  0  0  0  0
    1.3107   -4.6264    0.0000 C   0  0  0  0  0  0  0  0  0  0  0  0
    2.0252   -5.0389    0.0000 C   0  0  0  0  0  0  0  0  0  0  0  0
    2.7397   -4.6264    0.0000 C   0  0  0  0  0  0  0  0  0  0  0  0
    2.7397   -3.8014    0.0000 C   0  0  0  0  0  0  0  0  0  0  0  0
    3.4541   -3.3889    0.0000 C   0  0  0  0  0  0  0  0  0  0  0  0
    3.4541   -2.5639    0.0000 O   0  0  0  0  0  0  0  0  0  0  0  0
    4.1686   -3.8014    0.0000 O   0  0  0  0  0  0  0  0  0  0  0  0
    4.8831   -3.3889    0.0000 C   0  0  0  0  0  0  0  0  0  0  0  0
    5.5975   -3.8014    0.0000 C   0  0  0  0  0  0  0  0  0  0  0  0
    6.3120   -3.3889    0.0000 C   0  0  0  0  0  0  0  0  0  0  0  0
    5.5975   -4.6264    0.0000 C   0  0  0  0  0  0  0  0  0  0  0  0
  1  2  1  0  0  0  0
  2  3  2  0  0  0  0
  2  4  1  0  0  0  0
  4  5  1  0  0  0  0
  5  6  1  0  0  0  0
  6  7  1  0  0  0  0
  6  8  1  0  0  0  0
  9  1  1  0  0  0  0
 10  9  2  0  0  0  0
 11 10  1  0  0  0  0
 12 11  2  0  0  0  0
 13 12  1  0  0  0  0
  1 13  2  0  0  0  0
 13 14  1  0  0  0  0
 14 15  2  0  0  0  0
 14 16  1  0  0  0  0
 16 17  1  0  0  0  0
 17 18  1  0  0  0  0
 18 19  1  0  0  0  0
 18 20  1  0  0  0  0
M  END
> <ChemID>
100184

> <CAS>
84-69-5

> <Original_SMILES>
CC(C)COC(=O)c1ccccc1C(=O)OCC(C)C

> <preferred_name>
Diisobutyl phthalate

> <dsstox_substance_id>
DTXSID9022522

> <dsstox_compound_id>
DTXCID602522

> <qc_level>
DSSTox_Low

> <Canonical_QSARr>
CC(C)COC(=O)C1C=CC=CC=1C(=O)OCC(C)C

> <InChI_Code_QSARr>
InChI=1S/C16H22O4/c1-11(2)9-19-15(17)13-7-5-6-8-14(13)16(18)20-10-12(3)4/h5-8,11-12H,9-10H2,1-4H3

> <InChI Key_QSARr>
MGWAVDBGNNKXQV-UHFFFAOYSA-N

> <Salt_Solvent>


> <Salt_Solvent_ID>
0

> <MPID>
100195

> <Tr_1_Tst_0>
1

> <Ready_Biodeg>
0.0

$$$$
Row178
  Mrv171c012251911052D          

 20 20  0  0  0  0            999 V2000
    1.5288   -1.6880    0.0000 C   0  0  0  0  0  0  0  0  0  0  0  0
    1.5288   -2.5130    0.0000 C   0  0  0  0  0  0  0  0  0  0  0  0
    2.2433   -2.9255    0.0000 C   0  0  0  0  0  0  0  0  0  0  0  0
    2.2433   -3.7505    0.0000 C   0  0  0  0  0  0  0  0  0  0  0  0
    1.5288   -4.1630    0.0000 O   0  0  0  0  0  0  0  0  0  0  0  0
    1.5288   -4.9880    0.0000 C   0  0  0  0  0  0  0  0  0  0  0  0
    0.8144   -5.4005    0.0000 C   0  0  0  0  0  0  0  0  0  0  0  0
    0.8144   -6.2255    0.0000 C   0  0  0  0  0  0  0  0  0  0  0  0
    0.0999   -6.6380    0.0000 C   0  0  0  0  0  0  0  0  0  0  0  0
    2.9578   -4.1630    0.0000 O   0  0  0  0  0  0  0  0  0  0  0  0
    2.9578   -2.5130    0.0000 C   0  0  0  0  0  0  0  0  0  0  0  0
    3.6723   -2.9255    0.0000 C   0  0  0  0  0  0  0  0  0  0  0  0
    4.3867   -2.5130    0.0000 O   0  0  0  0  0  0  0  0  0  0  0  0
    5.1012   -2.9255    0.0000 C   0  0  0  0  0  0  0  0  0  0  0  0
    5.8157   -2.5130    0.0000 C   0  0  0  0  0  0  0  0  0  0  0  0
    6.5301   -2.9255    0.0000 C   0  0  0  0  0  0  0  0  0  0  0  0
    7.2446   -2.5130    0.0000 C   0  0  0  0  0  0  0  0  0  0  0  0
    3.6723   -3.7505    0.0000 O   0  0  0  0  0  0  0  0  0  0  0  0
    2.9578   -1.6880    0.0000 C   0  0  0  0  0  0  0  0  0  0  0  0
    2.2433   -1.2755    0.0000 C   0  0  0  0  0  0  0  0  0  0  0  0
  2  1  1  0  0  0  0
  3  2  2  0  0  0  0
  3  4  1  0  0  0  0
  4  5  1  0  0  0  0
  5  6  1  0  0  0  0
  6  7  1  0  0  0  0
  7  8  1  0  0  0  0
  8  9  1  0  0  0  0
  4 10  2  0  0  0  0
 11  3  1  0  0  0  0
 11 12  1  0  0  0  0
 12 13  1  0  0  0  0
 13 14  1  0  0  0  0
 14 15  1  0  0  0  0
 15 16  1  0  0  0  0
 16 17  1  0  0  0  0
 12 18  2  0  0  0  0
 19 11  2  0  0  0  0
 20 19  1  0  0  0  0
  1 20  2  0  0  0  0
M  END
> <ChemID>
100185

> <CAS>
84-74-2

> <Original_SMILES>
CCCCOC(=O)c1ccccc1C(=O)OCCCC

> <preferred_name>
Dibutyl phthalate

> <dsstox_substance_id>
DTXSID2021781

> <dsstox_compound_id>
DTXCID301781

> <qc_level>
DSSTox_High

> <Canonical_QSARr>
CCCCOC(=O)C1=CC=CC=C1C(=O)OCCCC

> <InChI_Code_QSARr>
InChI=1S/C16H22O4/c1-3-5-11-19-15(17)13-9-7-8-10-14(13)16(18)20-12-6-4-2/h7-10H,3-6,11-12H2,1-2H3

> <InChI Key_QSARr>
DOIRQSBPFJWKBE-UHFFFAOYSA-N

> <Salt_Solvent>


> <Salt_Solvent_ID>
0

> <MPID>
100196

> <Tr_1_Tst_0>
1

> <Ready_Biodeg>
1.0

$$$$
Row179
  Mrv171c012251911052D          

 14 16  0  0  0  0            999 V2000
    2.2977   -1.4199    0.0000 C   0  0  0  0  0  0  0  0  0  0  0  0
    2.7102   -0.7054    0.0000 C   0  0  0  0  0  0  0  0  0  0  0  0
    3.5352   -0.7054    0.0000 C   0  0  0  0  0  0  0  0  0  0  0  0
    3.9477   -1.4199    0.0000 C   0  0  0  0  0  0  0  0  0  0  0  0
    3.5352   -2.1344    0.0000 C   0  0  0  0  0  0  0  0  0  0  0  0
    2.7102   -2.1344    0.0000 C   0  0  0  0  0  0  0  0  0  0  0  0
    2.2977   -2.8488    0.0000 C   0  0  0  0  0  0  0  0  0  0  0  0
    1.4727   -2.8488    0.0000 C   0  0  0  0  0  0  0  0  0  0  0  0
    1.0602   -2.1344    0.0000 C   0  0  0  0  0  0  0  0  0  0  0  0
    0.2352   -2.1344    0.0000 C   0  0  0  0  0  0  0  0  0  0  0  0
   -0.1773   -1.4199    0.0000 C   0  0  0  0  0  0  0  0  0  0  0  0
    0.2352   -0.7054    0.0000 C   0  0  0  0  0  0  0  0  0  0  0  0
    1.0602   -0.7054    0.0000 C   0  0  0  0  0  0  0  0  0  0  0  0
    1.4727   -1.4199    0.0000 C   0  0  0  0  0  0  0  0  0  0  0  0
  2  1  1  0  0  0  0
  3  2  2  0  0  0  0
  4  3  1  0  0  0  0
  5  4  2  0  0  0  0
  6  5  1  0  0  0  0
  6  1  2  0  0  0  0
  7  6  1  0  0  0  0
  8  7  2  0  0  0  0
  9  8  1  0  0  0  0
  9 10  1  0  0  0  0
 10 11  2  0  0  0  0
 11 12  1  0  0  0  0
 12 13  2  0  0  0  0
 13 14  1  0  0  0  0
  1 14  1  0  0  0  0
 14  9  2  0  0  0  0
M  END
> <ChemID>
100187

> <CAS>
85-01-8

> <Original_SMILES>
c1cc2ccccc2c2ccccc21

> <preferred_name>
Phenanthrene

> <dsstox_substance_id>
DTXSID6024254

> <dsstox_compound_id>
DTXCID904254

> <qc_level>
DSSTox_Low

> <Canonical_QSARr>
C1=CC2C=CC=CC=2C2C=CC=CC=21

> <InChI_Code_QSARr>
InChI=1S/C14H10/c1-3-7-13-11(5-1)9-10-12-6-2-4-8-14(12)13/h1-10H

> <InChI Key_QSARr>
YNPNZTXNASCQKK-UHFFFAOYSA-N

> <Salt_Solvent>


> <Salt_Solvent_ID>
0

> <MPID>
100197

> <Tr_1_Tst_0>
1

> <Ready_Biodeg>
1.0

$$$$
Row180
  Mrv171c012251911052D          

 13 13  0  0  0  0            999 V2000
    3.8841   -0.9957    0.0000 C   0  0  0  0  0  0  0  0  0  0  0  0
    3.1696   -0.5832    0.0000 C   0  0  0  0  0  0  0  0  0  0  0  0
    2.4552   -0.9957    0.0000 C   0  0  0  0  0  0  0  0  0  0  0  0
    1.7407   -0.5832    0.0000 C   0  0  0  0  0  0  0  0  0  0  0  0
    1.7407    0.2418    0.0000 Br  0  0  0  0  0  0  0  0  0  0  0  0
    1.0262   -0.9957    0.0000 C   0  0  0  0  0  0  0  0  0  0  0  0
    0.3118   -0.5832    0.0000 Br  0  0  0  0  0  0  0  0  0  0  0  0
    1.0262   -1.8207    0.0000 C   0  0  0  0  0  0  0  0  0  0  0  0
    0.3118   -2.2332    0.0000 Br  0  0  0  0  0  0  0  0  0  0  0  0
    1.7407   -2.2332    0.0000 C   0  0  0  0  0  0  0  0  0  0  0  0
    1.7407   -3.0582    0.0000 Br  0  0  0  0  0  0  0  0  0  0  0  0
    2.4552   -1.8207    0.0000 C   0  0  0  0  0  0  0  0  0  0  0  0
    3.1696   -2.2332    0.0000 Br  0  0  0  0  0  0  0  0  0  0  0  0
  1  2  1  0  0  0  0
  2  3  1  0  0  0  0
  4  3  1  0  0  0  0
  4  5  1  0  0  0  0
  6  4  2  0  0  0  0
  6  7  1  0  0  0  0
  8  6  1  0  0  0  0
  8  9  1  0  0  0  0
 10  8  2  0  0  0  0
 10 11  1  0  0  0  0
 12 10  1  0  0  0  0
  3 12  2  0  0  0  0
 12 13  1  0  0  0  0
M  END
> <ChemID>
100188

> <CAS>
85-22-3

> <Original_SMILES>
CCc1c(Br)c(Br)c(Br)c(Br)c1Br

> <preferred_name>
2,3,4,5,6-Pentabromoethylbenzene

> <dsstox_substance_id>
DTXSID7021782

> <dsstox_compound_id>
DTXCID701782

> <qc_level>
DSSTox_Low

> <Canonical_QSARr>
CCC1C(Br)=C(Br)C(Br)=C(Br)C=1Br

> <InChI_Code_QSARr>
InChI=1S/C8H5Br5/c1-2-3-4(9)6(11)8(13)7(12)5(3)10/h2H2,1H3

> <InChI Key_QSARr>
FIAXCDIQXHJNIX-UHFFFAOYSA-N

> <Salt_Solvent>


> <Salt_Solvent_ID>
0

> <MPID>
100198

> <Tr_1_Tst_0>
0

> <Ready_Biodeg>
0.0

$$$$
Row181
  Mrv171c012251911052D          

 11 12  0  0  0  0            999 V2000
    1.5415   -1.8603    0.0000 C   0  0  0  0  0  0  0  0  0  0  0  0
    2.2560   -2.2728    0.0000 C   0  0  0  0  0  0  0  0  0  0  0  0
    2.9705   -1.8603    0.0000 C   0  0  0  0  0  0  0  0  0  0  0  0
    2.9705   -1.0353    0.0000 C   0  0  0  0  0  0  0  0  0  0  0  0
    2.2560   -0.6228    0.0000 C   0  0  0  0  0  0  0  0  0  0  0  0
    1.5415   -1.0353    0.0000 C   0  0  0  0  0  0  0  0  0  0  0  0
    0.7569   -0.7804    0.0000 C   0  0  0  0  0  0  0  0  0  0  0  0
    0.5020    0.0042    0.0000 O   0  0  0  0  0  0  0  0  0  0  0  0
    0.2720   -1.4478    0.0000 N   0  0  0  0  0  0  0  0  0  0  0  0
    0.7569   -2.1153    0.0000 C   0  0  0  0  0  0  0  0  0  0  0  0
    0.5020   -2.8999    0.0000 O   0  0  0  0  0  0  0  0  0  0  0  0
  2  1  1  0  0  0  0
  3  2  1  0  0  0  0
  4  3  2  0  0  0  0
  5  4  1  0  0  0  0
  6  5  1  0  0  0  0
  6  1  1  0  0  0  0
  7  6  1  0  0  0  0
  7  8  2  0  0  0  0
  9  7  1  0  0  0  0
 10  9  1  0  0  0  0
  1 10  1  0  0  0  0
 10 11  2  0  0  0  0
M  END
> <ChemID>
100189

> <CAS>
85-40-5

> <Original_SMILES>
O=C1NC(=O)C2CC=CCC12

> <preferred_name>
1,2,3,6-Tetrahydrophthalimide

> <dsstox_substance_id>
DTXSID8026513

> <dsstox_compound_id>
DTXCID106513

> <qc_level>
DSSTox_High

> <Canonical_QSARr>
O=C1NC(=O)C2CC=CCC12

> <InChI_Code_QSARr>
InChI=1S/C8H9NO2/c10-7-5-3-1-2-4-6(5)8(11)9-7/h1-2,5-6H,3-4H2,(H,9,10,11)

> <InChI Key_QSARr>
CIFFBTOJCKSRJY-UHFFFAOYSA-N

> <Salt_Solvent>


> <Salt_Solvent_ID>
0

> <MPID>
100199

> <Tr_1_Tst_0>
1

> <Ready_Biodeg>
0.0

$$$$
Row182
  Mrv171c012251911052D          

 11 12  0  0  0  0            999 V2000
    1.5415   -1.8603    0.0000 C   0  0  0  0  0  0  0  0  0  0  0  0
    2.2560   -2.2728    0.0000 C   0  0  0  0  0  0  0  0  0  0  0  0
    2.9705   -1.8603    0.0000 C   0  0  0  0  0  0  0  0  0  0  0  0
    2.9705   -1.0353    0.0000 C   0  0  0  0  0  0  0  0  0  0  0  0
    2.2560   -0.6228    0.0000 C   0  0  0  0  0  0  0  0  0  0  0  0
    1.5415   -1.0353    0.0000 C   0  0  0  0  0  0  0  0  0  0  0  0
    0.7569   -0.7804    0.0000 C   0  0  0  0  0  0  0  0  0  0  0  0
    0.5020    0.0042    0.0000 O   0  0  0  0  0  0  0  0  0  0  0  0
    0.2720   -1.4478    0.0000 O   0  0  0  0  0  0  0  0  0  0  0  0
    0.7569   -2.1153    0.0000 C   0  0  0  0  0  0  0  0  0  0  0  0
    0.5020   -2.8999    0.0000 O   0  0  0  0  0  0  0  0  0  0  0  0
  2  1  1  0  0  0  0
  3  2  1  0  0  0  0
  4  3  1  0  0  0  0
  5  4  1  0  0  0  0
  6  5  1  0  0  0  0
  6  1  1  0  0  0  0
  7  6  1  0  0  0  0
  7  8  2  0  0  0  0
  9  7  1  0  0  0  0
 10  9  1  0  0  0  0
  1 10  1  0  0  0  0
 10 11  2  0  0  0  0
M  END
> <ChemID>
100190

> <CAS>
85-42-7

> <Original_SMILES>
O=C1OC(=O)C2CCCCC12

> <preferred_name>
Hexahydrophthalic anhydride

> <dsstox_substance_id>
DTXSID8026515

> <dsstox_compound_id>
DTXCID906515

> <qc_level>
DSSTox_Low

> <Canonical_QSARr>
O=C1OC(=O)C2CCCCC12

> <InChI_Code_QSARr>
InChI=1S/C8H10O3/c9-7-5-3-1-2-4-6(5)8(10)11-7/h5-6H,1-4H2

> <InChI Key_QSARr>
MUTGBJKUEZFXGO-UHFFFAOYSA-N

> <Salt_Solvent>


> <Salt_Solvent_ID>
0

> <MPID>
100200

> <Tr_1_Tst_0>
1

> <Ready_Biodeg>
0.0

$$$$
Row183
  Mrv171c012251911052D          

 11 12  0  0  0  0            999 V2000
    0.1178   -2.9443    0.0000 O   0  0  0  0  0  0  0  0  0  0  0  0
    0.3728   -2.1597    0.0000 C   0  0  0  0  0  0  0  0  0  0  0  0
   -0.1122   -1.4922    0.0000 O   0  0  0  0  0  0  0  0  0  0  0  0
    0.3728   -0.8248    0.0000 C   0  0  0  0  0  0  0  0  0  0  0  0
    0.1178   -0.0402    0.0000 O   0  0  0  0  0  0  0  0  0  0  0  0
    1.1574   -1.0797    0.0000 C   0  0  0  0  0  0  0  0  0  0  0  0
    1.8718   -0.6672    0.0000 C   0  0  0  0  0  0  0  0  0  0  0  0
    2.5863   -1.0797    0.0000 C   0  0  0  0  0  0  0  0  0  0  0  0
    2.5863   -1.9047    0.0000 C   0  0  0  0  0  0  0  0  0  0  0  0
    1.8718   -2.3172    0.0000 C   0  0  0  0  0  0  0  0  0  0  0  0
    1.1574   -1.9047    0.0000 C   0  0  0  0  0  0  0  0  0  0  0  0
  1  2  2  0  0  0  0
  3  2  1  0  0  0  0
  4  3  1  0  0  0  0
  4  5  2  0  0  0  0
  6  4  1  0  0  0  0
  6  7  1  0  0  0  0
  7  8  2  0  0  0  0
  8  9  1  0  0  0  0
  9 10  2  0  0  0  0
 10 11  1  0  0  0  0
  2 11  1  0  0  0  0
 11  6  2  0  0  0  0
M  END
> <ChemID>
100191

> <CAS>
85-44-9

> <Original_SMILES>
O=C1OC(=O)c2ccccc12

> <preferred_name>
Phthalic anhydride

> <dsstox_substance_id>
DTXSID2021159

> <dsstox_compound_id>
DTXCID401159

> <qc_level>
DSSTox_Low

> <Canonical_QSARr>
O=C1OC(=O)C2C=CC=CC1=2

> <InChI_Code_QSARr>
InChI=1S/C8H4O3/c9-7-5-3-1-2-4-6(5)8(10)11-7/h1-4H

> <InChI Key_QSARr>
LGRFSURHDFAFJT-UHFFFAOYSA-N

> <Salt_Solvent>


> <Salt_Solvent_ID>
0

> <MPID>
100201

> <Tr_1_Tst_0>
1

> <Ready_Biodeg>
1.0

$$$$
Row184
  Mrv171c012251911052D          

 12 12  0  0  0  0            999 V2000
   -0.3572    0.6188    0.0000 O   0  5  0  0  0  0  0  0  0  0  0  0
    0.3572    0.2063    0.0000 N   0  3  0  0  0  0  0  0  0  0  0  0
    1.0717    0.6187    0.0000 C   0  0  0  0  0  0  0  0  0  0  0  0
    1.7862    0.2062    0.0000 C   0  0  0  0  0  0  0  0  0  0  0  0
    2.5006    0.6187    0.0000 C   0  0  0  0  0  0  0  0  0  0  0  0
    2.5006    1.4437    0.0000 C   0  0  0  0  0  0  0  0  0  0  0  0
    1.7862    1.8562    0.0000 C   0  0  0  0  0  0  0  0  0  0  0  0
    1.7862    2.6812    0.0000 N   0  0  0  0  0  0  0  0  0  0  0  0
    1.0717    1.4437    0.0000 C   0  0  0  0  0  0  0  0  0  0  0  0
    0.3572    1.8563    0.0000 O   0  0  0  0  0  0  0  0  0  0  0  0
   -0.3572    1.4438    0.0000 C   0  0  0  0  0  0  0  0  0  0  0  0
    0.3572   -0.6187    0.0000 O   0  0  0  0  0  0  0  0  0  0  0  0
  1  2  1  0  0  0  0
  2  3  1  0  0  0  0
  4  3  1  0  0  0  0
  5  4  2  0  0  0  0
  6  5  1  0  0  0  0
  7  6  2  0  0  0  0
  7  8  1  0  0  0  0
  9  7  1  0  0  0  0
  3  9  2  0  0  0  0
  9 10  1  0  0  0  0
 10 11  1  0  0  0  0
  2 12  2  0  0  0  0
M  CHG  2   1  -1   2   1
M  END
> <ChemID>
100192

> <CAS>
85-45-0

> <Original_SMILES>
COc1c(N)cccc1[N+]([O-])=O

> <preferred_name>
Benzenamine, 2-methoxy-3-nitro-

> <dsstox_substance_id>
DTXSID1058921

> <dsstox_compound_id>
DTXCID3048447

> <qc_level>
Public_High

> <Canonical_QSARr>
COC1C(N)=CC=CC=1[N+]([O-])=O

> <InChI_Code_QSARr>
InChI=1S/C7H8N2O3/c1-12-7-5(8)3-2-4-6(7)9(10)11/h2-4H,8H2,1H3

> <InChI Key_QSARr>
GVBUHJSIDPIOBZ-UHFFFAOYSA-N

> <Salt_Solvent>


> <Salt_Solvent_ID>
0

> <MPID>
100202

> <Tr_1_Tst_0>
0

> <Ready_Biodeg>
0.0

$$$$
Row185
  Mrv171c012251911052D          

 23 24  0  0  0  0            999 V2000
    3.1013   -1.5538    0.0000 C   0  0  0  0  0  0  0  0  0  0  0  0
    3.1013   -0.7288    0.0000 C   0  0  0  0  0  0  0  0  0  0  0  0
    2.3868   -0.3163    0.0000 C   0  0  0  0  0  0  0  0  0  0  0  0
    1.6723   -0.7288    0.0000 C   0  0  0  0  0  0  0  0  0  0  0  0
    1.6723   -1.5538    0.0000 C   0  0  0  0  0  0  0  0  0  0  0  0
    2.3868   -1.9663    0.0000 C   0  0  0  0  0  0  0  0  0  0  0  0
    2.3868   -2.7913    0.0000 C   0  0  0  0  0  0  0  0  0  0  0  0
    3.1013   -3.2038    0.0000 O   0  0  0  0  0  0  0  0  0  0  0  0
    1.6723   -3.2038    0.0000 O   0  0  0  0  0  0  0  0  0  0  0  0
    1.6723   -4.0288    0.0000 C   0  0  0  0  0  0  0  0  0  0  0  0
    0.9579   -4.4413    0.0000 C   0  0  0  0  0  0  0  0  0  0  0  0
    0.2434   -4.0288    0.0000 C   0  0  0  0  0  0  0  0  0  0  0  0
   -0.4711   -4.4413    0.0000 C   0  0  0  0  0  0  0  0  0  0  0  0
   -0.4711   -5.2663    0.0000 C   0  0  0  0  0  0  0  0  0  0  0  0
    0.2434   -5.6788    0.0000 C   0  0  0  0  0  0  0  0  0  0  0  0
    0.9579   -5.2663    0.0000 C   0  0  0  0  0  0  0  0  0  0  0  0
    3.8158   -1.9663    0.0000 C   0  0  0  0  0  0  0  0  0  0  0  0
    3.8158   -2.7913    0.0000 O   0  0  0  0  0  0  0  0  0  0  0  0
    4.5302   -1.5538    0.0000 O   0  0  0  0  0  0  0  0  0  0  0  0
    5.2447   -1.9663    0.0000 C   0  0  0  0  0  0  0  0  0  0  0  0
    5.9592   -1.5538    0.0000 C   0  0  0  0  0  0  0  0  0  0  0  0
    6.6736   -1.9663    0.0000 C   0  0  0  0  0  0  0  0  0  0  0  0
    7.3881   -1.5538    0.0000 C   0  0  0  0  0  0  0  0  0  0  0  0
  2  1  1  0  0  0  0
  3  2  2  0  0  0  0
  4  3  1  0  0  0  0
  5  4  2  0  0  0  0
  6  5  1  0  0  0  0
  1  6  2  0  0  0  0
  6  7  1  0  0  0  0
  7  8  2  0  0  0  0
  7  9  1  0  0  0  0
  9 10  1  0  0  0  0
 10 11  1  0  0  0  0
 12 11  2  0  0  0  0
 13 12  1  0  0  0  0
 14 13  2  0  0  0  0
 15 14  1  0  0  0  0
 16 15  2  0  0  0  0
 11 16  1  0  0  0  0
  1 17  1  0  0  0  0
 17 18  2  0  0  0  0
 17 19  1  0  0  0  0
 19 20  1  0  0  0  0
 20 21  1  0  0  0  0
 21 22  1  0  0  0  0
 22 23  1  0  0  0  0
M  END
> <ChemID>
100193

> <CAS>
85-68-7

> <Original_SMILES>
CCCCOC(=O)c1ccccc1C(=O)OCc1ccccc1

> <preferred_name>
Butyl benzyl phthalate

> <dsstox_substance_id>
DTXSID3020205

> <dsstox_compound_id>
DTXCID70205

> <qc_level>
DSSTox_Low

> <Canonical_QSARr>
CCCCOC(=O)C1C=CC=CC=1C(=O)OCC1C=CC=CC=1

> <InChI_Code_QSARr>
InChI=1S/C19H20O4/c1-2-3-13-22-18(20)16-11-7-8-12-17(16)19(21)23-14-15-9-5-4-6-10-15/h4-12H,2-3,13-14H2,1H3

> <InChI Key_QSARr>
IRIAEXORFWYRCZ-UHFFFAOYSA-N

> <Salt_Solvent>


> <Salt_Solvent_ID>
0

> <MPID>
100203

> <Tr_1_Tst_0>
1

> <Ready_Biodeg>
1.0

$$$$
Row186
  Mrv171c012251911052D          

 24 24  0  0  0  0            999 V2000
    2.6461   -3.2515    0.0000 C   0  0  0  0  0  0  0  0  0  0  0  0
    2.6461   -4.0765    0.0000 C   0  0  0  0  0  0  0  0  0  0  0  0
    3.3606   -4.4890    0.0000 C   0  0  0  0  0  0  0  0  0  0  0  0
    4.0751   -4.0765    0.0000 C   0  0  0  0  0  0  0  0  0  0  0  0
    4.0751   -3.2515    0.0000 C   0  0  0  0  0  0  0  0  0  0  0  0
    4.7895   -2.8390    0.0000 C   0  0  0  0  0  0  0  0  0  0  0  0
    4.7895   -2.0140    0.0000 O   0  0  0  0  0  0  0  0  0  0  0  0
    5.5040   -3.2515    0.0000 O   0  0  0  0  0  0  0  0  0  0  0  0
    6.2185   -2.8390    0.0000 C   0  0  0  0  0  0  0  0  0  0  0  0
    6.9329   -3.2515    0.0000 C   0  0  0  0  0  0  0  0  0  0  0  0
    6.9329   -4.0765    0.0000 O   0  0  0  0  0  0  0  0  0  0  0  0
    7.6474   -2.8390    0.0000 O   0  0  0  0  0  0  0  0  0  0  0  0
    8.3619   -3.2515    0.0000 C   0  0  0  0  0  0  0  0  0  0  0  0
    9.0764   -2.8390    0.0000 C   0  0  0  0  0  0  0  0  0  0  0  0
    9.7908   -3.2515    0.0000 C   0  0  0  0  0  0  0  0  0  0  0  0
   10.5053   -2.8390    0.0000 C   0  0  0  0  0  0  0  0  0  0  0  0
    3.3606   -2.8390    0.0000 C   0  0  0  0  0  0  0  0  0  0  0  0
    3.3606   -2.0140    0.0000 C   0  0  0  0  0  0  0  0  0  0  0  0
    4.0751   -1.6015    0.0000 O   0  0  0  0  0  0  0  0  0  0  0  0
    2.6461   -1.6015    0.0000 O   0  0  0  0  0  0  0  0  0  0  0  0
    2.6461   -0.7765    0.0000 C   0  0  0  0  0  0  0  0  0  0  0  0
    1.9317   -0.3640    0.0000 C   0  0  0  0  0  0  0  0  0  0  0  0
    1.9317    0.4610    0.0000 C   0  0  0  0  0  0  0  0  0  0  0  0
    1.2172    0.8735    0.0000 C   0  0  0  0  0  0  0  0  0  0  0  0
  2  1  1  0  0  0  0
  3  2  2  0  0  0  0
  4  3  1  0  0  0  0
  5  4  2  0  0  0  0
  5  6  1  0  0  0  0
  6  7  2  0  0  0  0
  6  8  1  0  0  0  0
  8  9  1  0  0  0  0
  9 10  1  0  0  0  0
 10 11  2  0  0  0  0
 10 12  1  0  0  0  0
 12 13  1  0  0  0  0
 13 14  1  0  0  0  0
 14 15  1  0  0  0  0
 15 16  1  0  0  0  0
 17  5  1  0  0  0  0
  1 17  2  0  0  0  0
 17 18  1  0  0  0  0
 18 19  2  0  0  0  0
 18 20  1  0  0  0  0
 20 21  1  0  0  0  0
 21 22  1  0  0  0  0
 22 23  1  0  0  0  0
 23 24  1  0  0  0  0
M  END
> <ChemID>
100194

> <CAS>
85-70-1

> <Original_SMILES>
CCCCOC(=O)COC(=O)c1ccccc1C(=O)OCCCC

> <preferred_name>
Butylphthalyl butylglycolate

> <dsstox_substance_id>
DTXSID7023938

> <dsstox_compound_id>
DTXCID203938

> <qc_level>
DSSTox_Low

> <Canonical_QSARr>
CCCCOC(=O)COC(=O)C1=CC=CC=C1C(=O)OCCCC

> <InChI_Code_QSARr>
InChI=1S/C18H24O6/c1-3-5-11-22-16(19)13-24-18(21)15-10-8-7-9-14(15)17(20)23-12-6-4-2/h7-10H,3-6,11-13H2,1-2H3

> <InChI Key_QSARr>
GOJCZVPJCKEBQV-UHFFFAOYSA-N

> <Salt_Solvent>


> <Salt_Solvent_ID>
0

> <MPID>
100204

> <Tr_1_Tst_0>
1

> <Ready_Biodeg>
1.0

$$$$
Row187
  Mrv171c012251911052D          

 15 16  0  0  0  0            999 V2000
    3.9991   -1.0712    0.0000 N   0  0  0  0  0  0  0  0  0  0  0  0
    3.2846   -1.4837    0.0000 C   0  0  0  0  0  0  0  0  0  0  0  0
    2.5702   -1.8962    0.0000 C   0  0  0  0  0  0  0  0  0  0  0  0
    2.5702   -2.7212    0.0000 C   0  0  0  0  0  0  0  0  0  0  0  0
    1.8557   -3.1337    0.0000 C   0  0  0  0  0  0  0  0  0  0  0  0
    1.8557   -3.9587    0.0000 C   0  0  0  0  0  0  0  0  0  0  0  0
    2.5702   -4.3712    0.0000 C   0  0  0  0  0  0  0  0  0  0  0  0
    3.2846   -3.9587    0.0000 C   0  0  0  0  0  0  0  0  0  0  0  0
    3.2846   -3.1337    0.0000 C   0  0  0  0  0  0  0  0  0  0  0  0
    1.8557   -1.4837    0.0000 C   0  0  0  0  0  0  0  0  0  0  0  0
    1.8557   -0.6587    0.0000 C   0  0  0  0  0  0  0  0  0  0  0  0
    1.1412   -0.2462    0.0000 C   0  0  0  0  0  0  0  0  0  0  0  0
    0.4267   -0.6587    0.0000 C   0  0  0  0  0  0  0  0  0  0  0  0
    0.4267   -1.4837    0.0000 C   0  0  0  0  0  0  0  0  0  0  0  0
    1.1412   -1.8962    0.0000 C   0  0  0  0  0  0  0  0  0  0  0  0
  1  2  3  0  0  0  0
  2  3  1  0  0  0  0
  3  4  1  0  0  0  0
  5  4  1  0  0  0  0
  6  5  2  0  0  0  0
  7  6  1  0  0  0  0
  8  7  2  0  0  0  0
  9  8  1  0  0  0  0
  4  9  2  0  0  0  0
  3 10  1  0  0  0  0
 11 10  1  0  0  0  0
 12 11  2  0  0  0  0
 13 12  1  0  0  0  0
 14 13  2  0  0  0  0
 15 14  1  0  0  0  0
 10 15  2  0  0  0  0
M  END
> <ChemID>
100195

> <CAS>
86-29-3

> <Original_SMILES>
N#CC(c1ccccc1)c1ccccc1

> <preferred_name>
Diphenylacetonitrile

> <dsstox_substance_id>
DTXSID4020539

> <dsstox_compound_id>
DTXCID80539

> <qc_level>
DSSTox_Low

> <Canonical_QSARr>
N#CC(C1C=CC=CC=1)C1C=CC=CC=1

> <InChI_Code_QSARr>
InChI=1S/C14H11N/c15-11-14(12-7-3-1-4-8-12)13-9-5-2-6-10-13/h1-10,14H

> <InChI Key_QSARr>
NEBPTMCRLHKPOB-UHFFFAOYSA-N

> <Salt_Solvent>


> <Salt_Solvent_ID>
0

> <MPID>
100205

> <Tr_1_Tst_0>
1

> <Ready_Biodeg>
0.0

$$$$
Row188
  Mrv171c012251911052D          

 15 16  0  0  0  0            999 V2000
    0.6753   -0.2112    0.0000 O   0  0  0  0  0  0  0  0  0  0  0  0
    0.6753   -1.0362    0.0000 N   0  0  0  0  0  0  0  0  0  0  0  0
    1.3898   -1.4487    0.0000 N   0  0  0  0  0  0  0  0  0  0  0  0
    1.3898   -2.2737    0.0000 C   0  0  0  0  0  0  0  0  0  0  0  0
    0.6753   -2.6862    0.0000 C   0  0  0  0  0  0  0  0  0  0  0  0
    0.6753   -3.5112    0.0000 C   0  0  0  0  0  0  0  0  0  0  0  0
    1.3898   -3.9237    0.0000 C   0  0  0  0  0  0  0  0  0  0  0  0
    2.1043   -3.5112    0.0000 C   0  0  0  0  0  0  0  0  0  0  0  0
    2.1043   -2.6862    0.0000 C   0  0  0  0  0  0  0  0  0  0  0  0
    2.1043   -1.0362    0.0000 C   0  0  0  0  0  0  0  0  0  0  0  0
    2.8188   -1.4487    0.0000 C   0  0  0  0  0  0  0  0  0  0  0  0
    3.5332   -1.0362    0.0000 C   0  0  0  0  0  0  0  0  0  0  0  0
    3.5332   -0.2112    0.0000 C   0  0  0  0  0  0  0  0  0  0  0  0
    2.8188    0.2013    0.0000 C   0  0  0  0  0  0  0  0  0  0  0  0
    2.1043   -0.2112    0.0000 C   0  0  0  0  0  0  0  0  0  0  0  0
  1  2  2  0  0  0  0
  2  3  1  0  0  0  0
  3  4  1  0  0  0  0
  5  4  1  0  0  0  0
  6  5  2  0  0  0  0
  7  6  1  0  0  0  0
  8  7  2  0  0  0  0
  9  8  1  0  0  0  0
  4  9  2  0  0  0  0
  3 10  1  0  0  0  0
 11 10  1  0  0  0  0
 12 11  2  0  0  0  0
 13 12  1  0  0  0  0
 14 13  2  0  0  0  0
 15 14  1  0  0  0  0
 10 15  2  0  0  0  0
M  END
> <ChemID>
100196

> <CAS>
86-30-6

> <Original_SMILES>
O=NN(c1ccccc1)c1ccccc1

> <preferred_name>
N-Nitrosodiphenylamine

> <dsstox_substance_id>
DTXSID6021030

> <dsstox_compound_id>
DTXCID001030

> <qc_level>
DSSTox_Low

> <Canonical_QSARr>
O=NN(C1C=CC=CC=1)C1C=CC=CC=1

> <InChI_Code_QSARr>
InChI=1S/C12H10N2O/c15-13-14(11-7-3-1-4-8-11)12-9-5-2-6-10-12/h1-10H

> <InChI Key_QSARr>
UBUCNCOMADRQHX-UHFFFAOYSA-N

> <Salt_Solvent>


> <Salt_Solvent_ID>
0

> <MPID>
100206

> <Tr_1_Tst_0>
0

> <Ready_Biodeg>
1.0

$$$$
Row189
  Mrv171c012251911052D          

 19 20  0  0  0  0            999 V2000
    3.8014   -2.8884    0.0000 O   0  0  0  0  0  0  0  0  0  0  0  0
    3.8014   -2.0634    0.0000 C   0  0  0  0  0  0  0  0  0  0  0  0
    3.0870   -1.6509    0.0000 N   0  0  0  0  0  0  0  0  0  0  0  0
    2.3725   -2.0634    0.0000 C   0  0  0  0  0  0  0  0  0  0  0  0
    1.6580   -1.6509    0.0000 S   0  0  0  0  0  0  0  0  0  0  0  0
    0.9436   -2.0634    0.0000 P   0  0  0  0  0  0  0  0  0  0  0  0
    0.2291   -2.4759    0.0000 O   0  0  0  0  0  0  0  0  0  0  0  0
   -0.4854   -2.0634    0.0000 C   0  0  0  0  0  0  0  0  0  0  0  0
    1.3561   -2.7779    0.0000 O   0  0  0  0  0  0  0  0  0  0  0  0
    0.9436   -3.4924    0.0000 C   0  0  0  0  0  0  0  0  0  0  0  0
    0.5311   -1.3489    0.0000 S   0  0  0  0  0  0  0  0  0  0  0  0
    3.0870   -0.8259    0.0000 N   0  0  0  0  0  0  0  0  0  0  0  0
    3.8014   -0.4134    0.0000 N   0  0  0  0  0  0  0  0  0  0  0  0
    4.5159   -0.8259    0.0000 C   0  0  0  0  0  0  0  0  0  0  0  0
    5.2304   -0.4134    0.0000 C   0  0  0  0  0  0  0  0  0  0  0  0
    5.9449   -0.8259    0.0000 C   0  0  0  0  0  0  0  0  0  0  0  0
    5.9449   -1.6509    0.0000 C   0  0  0  0  0  0  0  0  0  0  0  0
    5.2304   -2.0634    0.0000 C   0  0  0  0  0  0  0  0  0  0  0  0
    4.5159   -1.6509    0.0000 C   0  0  0  0  0  0  0  0  0  0  0  0
  1  2  2  0  0  0  0
  3  2  1  0  0  0  0
  3  4  1  0  0  0  0
  4  5  1  0  0  0  0
  5  6  1  0  0  0  0
  6  7  1  0  0  0  0
  7  8  1  0  0  0  0
  6  9  1  0  0  0  0
  9 10  1  0  0  0  0
  6 11  2  0  0  0  0
 12  3  1  0  0  0  0
 13 12  2  0  0  0  0
 14 13  1  0  0  0  0
 14 15  1  0  0  0  0
 15 16  2  0  0  0  0
 16 17  1  0  0  0  0
 17 18  2  0  0  0  0
 18 19  1  0  0  0  0
  2 19  1  0  0  0  0
 19 14  2  0  0  0  0
M  END
> <ChemID>
100197

> <CAS>
86-50-0

> <Original_SMILES>
COP(=S)(OC)SCN1N=Nc2ccccc2C1=O

> <preferred_name>
Azinphos-methyl

> <dsstox_substance_id>
DTXSID3020122

> <dsstox_compound_id>
DTXCID10122

> <qc_level>
DSSTox_Low

> <Canonical_QSARr>
COP(=S)(OC)SCN1N=NC2C=CC=CC=2C1=O

> <InChI_Code_QSARr>
InChI=1S/C10H12N3O3PS2/c1-15-17(18,16-2)19-7-13-10(14)8-5-3-4-6-9(8)11-12-13/h3-6H,7H2,1-2H3

> <InChI Key_QSARr>
CJJOSEISRRTUQB-UHFFFAOYSA-N

> <Salt_Solvent>


> <Salt_Solvent_ID>
0

> <MPID>
100207

> <Tr_1_Tst_0>
1

> <Ready_Biodeg>
1.0

$$$$
Row190
  Mrv171c012251911052D          

 13 14  0  0  0  0            999 V2000
    1.7715   -1.6539    0.0000 C   0  0  0  0  0  0  0  0  0  0  0  0
    1.0570   -1.2414    0.0000 C   0  0  0  0  0  0  0  0  0  0  0  0
    1.0570   -0.4164    0.0000 C   0  0  0  0  0  0  0  0  0  0  0  0
    0.3425   -0.0039    0.0000 O   0  0  0  0  0  0  0  0  0  0  0  0
    1.7715   -0.0039    0.0000 O   0  0  0  0  0  0  0  0  0  0  0  0
    0.3425   -1.6539    0.0000 C   0  0  0  0  0  0  0  0  0  0  0  0
    0.3425   -2.4789    0.0000 C   0  0  0  0  0  0  0  0  0  0  0  0
    1.0570   -2.8914    0.0000 C   0  0  0  0  0  0  0  0  0  0  0  0
    1.7715   -2.4789    0.0000 C   0  0  0  0  0  0  0  0  0  0  0  0
    2.4859   -2.8914    0.0000 C   0  0  0  0  0  0  0  0  0  0  0  0
    3.2004   -2.4789    0.0000 C   0  0  0  0  0  0  0  0  0  0  0  0
    3.2004   -1.6539    0.0000 C   0  0  0  0  0  0  0  0  0  0  0  0
    2.4859   -1.2414    0.0000 C   0  0  0  0  0  0  0  0  0  0  0  0
  2  1  1  0  0  0  0
  2  3  1  0  0  0  0
  3  4  1  0  0  0  0
  3  5  2  0  0  0  0
  6  2  2  0  0  0  0
  7  6  1  0  0  0  0
  8  7  2  0  0  0  0
  9  8  1  0  0  0  0
  9  1  2  0  0  0  0
 10  9  1  0  0  0  0
 11 10  2  0  0  0  0
 12 11  1  0  0  0  0
 13 12  2  0  0  0  0
  1 13  1  0  0  0  0
M  END
> <ChemID>
100198

> <CAS>
86-55-5

> <Original_SMILES>
OC(=O)c1cccc2ccccc21

> <preferred_name>


> <dsstox_substance_id>
DTXSID50861668

> <dsstox_compound_id>
DTXCID90810559

> <qc_level>


> <Canonical_QSARr>
OC(=O)C1=CC=CC2C=CC=CC=21

> <InChI_Code_QSARr>
InChI=1S/C11H8O2/c12-11(13)10-7-3-5-8-4-1-2-6-9(8)10/h1-7H,(H,12,13)

> <InChI Key_QSARr>
LNETULKMXZVUST-UHFFFAOYSA-N

> <Salt_Solvent>


> <Salt_Solvent_ID>
0

> <MPID>
100208

> <Tr_1_Tst_0>
1

> <Ready_Biodeg>
0.0

$$$$
Row191
  Mrv171c012251911052D          

 13 15  0  0  0  0            999 V2000
    2.5498   -0.5036    0.0000 C   0  0  0  0  0  0  0  0  0  0  0  0
    3.1018    0.1095    0.0000 C   0  0  0  0  0  0  0  0  0  0  0  0
    3.9088   -0.0620    0.0000 C   0  0  0  0  0  0  0  0  0  0  0  0
    4.1637   -0.8466    0.0000 C   0  0  0  0  0  0  0  0  0  0  0  0
    3.6117   -1.4597    0.0000 C   0  0  0  0  0  0  0  0  0  0  0  0
    2.8047   -1.2882    0.0000 C   0  0  0  0  0  0  0  0  0  0  0  0
    2.1373   -1.7731    0.0000 C   0  0  0  0  0  0  0  0  0  0  0  0
    1.4699   -1.2882    0.0000 C   0  0  0  0  0  0  0  0  0  0  0  0
    0.6629   -1.4597    0.0000 C   0  0  0  0  0  0  0  0  0  0  0  0
    0.1109   -0.8466    0.0000 C   0  0  0  0  0  0  0  0  0  0  0  0
    0.3658   -0.0620    0.0000 C   0  0  0  0  0  0  0  0  0  0  0  0
    1.1728    0.1095    0.0000 C   0  0  0  0  0  0  0  0  0  0  0  0
    1.7248   -0.5036    0.0000 C   0  0  0  0  0  0  0  0  0  0  0  0
  2  1  1  0  0  0  0
  3  2  2  0  0  0  0
  4  3  1  0  0  0  0
  5  4  2  0  0  0  0
  6  5  1  0  0  0  0
  6  1  2  0  0  0  0
  7  6  1  0  0  0  0
  8  7  1  0  0  0  0
  8  9  1  0  0  0  0
  9 10  2  0  0  0  0
 10 11  1  0  0  0  0
 11 12  2  0  0  0  0
 12 13  1  0  0  0  0
  1 13  1  0  0  0  0
 13  8  2  0  0  0  0
M  END
> <ChemID>
100199

> <CAS>
86-73-7

> <Original_SMILES>
C1c2ccccc2-c2ccccc21

> <preferred_name>
Fluorene

> <dsstox_substance_id>
DTXSID8024105

> <dsstox_compound_id>
DTXCID604105

> <qc_level>
DSSTox_Low

> <Canonical_QSARr>
C1C2C=CC=CC=2C2C=CC=CC=21

> <InChI_Code_QSARr>
InChI=1S/C13H10/c1-3-7-12-10(5-1)9-11-6-2-4-8-13(11)12/h1-8H,9H2

> <InChI Key_QSARr>
NIHNNTQXNPWCJQ-UHFFFAOYSA-N

> <Salt_Solvent>


> <Salt_Solvent_ID>
0

> <MPID>
100209

> <Tr_1_Tst_0>
1

> <Ready_Biodeg>
0.0

$$$$
Row192
  Mrv171c012251911052D          

 13 15  0  0  0  0            999 V2000
    2.3777   -0.7362    0.0000 C   0  0  0  0  0  0  0  0  0  0  0  0
    2.9297   -0.1231    0.0000 C   0  0  0  0  0  0  0  0  0  0  0  0
    3.7367   -0.2946    0.0000 C   0  0  0  0  0  0  0  0  0  0  0  0
    3.9916   -1.0793    0.0000 C   0  0  0  0  0  0  0  0  0  0  0  0
    3.4396   -1.6924    0.0000 C   0  0  0  0  0  0  0  0  0  0  0  0
    2.6326   -1.5208    0.0000 C   0  0  0  0  0  0  0  0  0  0  0  0
    1.9652   -2.0058    0.0000 N   0  0  0  0  0  0  0  0  0  0  0  0
    1.2977   -1.5208    0.0000 C   0  0  0  0  0  0  0  0  0  0  0  0
    0.4908   -1.6924    0.0000 C   0  0  0  0  0  0  0  0  0  0  0  0
   -0.0613   -1.0793    0.0000 C   0  0  0  0  0  0  0  0  0  0  0  0
    0.1937   -0.2946    0.0000 C   0  0  0  0  0  0  0  0  0  0  0  0
    1.0007   -0.1231    0.0000 C   0  0  0  0  0  0  0  0  0  0  0  0
    1.5527   -0.7362    0.0000 C   0  0  0  0  0  0  0  0  0  0  0  0
  2  1  2  0  0  0  0
  3  2  1  0  0  0  0
  4  3  2  0  0  0  0
  5  4  1  0  0  0  0
  6  5  2  0  0  0  0
  6  1  1  0  0  0  0
  7  6  1  0  0  0  0
  8  7  1  0  0  0  0
  8  9  1  0  0  0  0
  9 10  2  0  0  0  0
 10 11  1  0  0  0  0
 11 12  2  0  0  0  0
 12 13  1  0  0  0  0
  1 13  1  0  0  0  0
 13  8  2  0  0  0  0
M  END
> <ChemID>
100200

> <CAS>
86-74-8

> <Original_SMILES>
c1cccc2[nH]c3ccccc3c21

> <preferred_name>
Carbazole

> <dsstox_substance_id>
DTXSID4020248

> <dsstox_compound_id>
DTXCID40248

> <qc_level>
DSSTox_High

> <Canonical_QSARr>
C1=CC=CC2NC3=CC=CC=C3C=21

> <InChI_Code_QSARr>
InChI=1S/C12H9N/c1-3-7-11-9(5-1)10-6-2-4-8-12(10)13-11/h1-8,13H

> <InChI Key_QSARr>
UJOBWOGCFQCDNV-UHFFFAOYSA-N

> <Salt_Solvent>


> <Salt_Solvent_ID>
0

> <MPID>
100210

> <Tr_1_Tst_0>
0

> <Ready_Biodeg>
0.0

$$$$
Row193
  Mrv171c012251911052D          

 19 21  0  0  0  0            999 V2000
    1.7289   -2.7525    0.0000 C   0  0  0  0  0  0  0  0  0  0  0  0
    1.7289   -3.5775    0.0000 C   0  0  0  0  0  0  0  0  0  0  0  0
    1.0144   -3.9900    0.0000 C   0  0  0  0  0  0  0  0  0  0  0  0
    1.0144   -4.8150    0.0000 C   0  0  0  0  0  0  0  0  0  0  0  0
    1.7289   -5.2275    0.0000 C   0  0  0  0  0  0  0  0  0  0  0  0
    2.4433   -4.8150    0.0000 C   0  0  0  0  0  0  0  0  0  0  0  0
    2.4433   -3.9900    0.0000 C   0  0  0  0  0  0  0  0  0  0  0  0
    1.0144   -2.3400    0.0000 O   0  0  0  0  0  0  0  0  0  0  0  0
    2.4433   -2.3400    0.0000 O   0  0  0  0  0  0  0  0  0  0  0  0
    2.4433   -1.5150    0.0000 C   0  0  0  0  0  0  0  0  0  0  0  0
    1.7289   -1.1025    0.0000 C   0  0  0  0  0  0  0  0  0  0  0  0
    1.7289   -0.2775    0.0000 C   0  0  0  0  0  0  0  0  0  0  0  0
    2.4433    0.1350    0.0000 C   0  0  0  0  0  0  0  0  0  0  0  0
    3.1578   -0.2775    0.0000 C   0  0  0  0  0  0  0  0  0  0  0  0
    3.8723    0.1350    0.0000 C   0  0  0  0  0  0  0  0  0  0  0  0
    4.5867   -0.2775    0.0000 C   0  0  0  0  0  0  0  0  0  0  0  0
    4.5867   -1.1025    0.0000 C   0  0  0  0  0  0  0  0  0  0  0  0
    3.8723   -1.5150    0.0000 N   0  0  0  0  0  0  0  0  0  0  0  0
    3.1578   -1.1025    0.0000 C   0  0  0  0  0  0  0  0  0  0  0  0
  1  2  1  0  0  0  0
  3  2  2  0  0  0  0
  4  3  1  0  0  0  0
  5  4  2  0  0  0  0
  6  5  1  0  0  0  0
  7  6  2  0  0  0  0
  2  7  1  0  0  0  0
  1  8  2  0  0  0  0
  1  9  1  0  0  0  0
  9 10  1  0  0  0  0
 11 10  2  0  0  0  0
 12 11  1  0  0  0  0
 13 12  2  0  0  0  0
 14 13  1  0  0  0  0
 14 15  1  0  0  0  0
 15 16  2  0  0  0  0
 16 17  1  0  0  0  0
 17 18  2  0  0  0  0
 18 19  1  0  0  0  0
 10 19  1  0  0  0  0
 19 14  2  0  0  0  0
M  END
> <ChemID>
100201

> <CAS>
86-75-9

> <Original_SMILES>
O=C(Oc1cccc2ccc[n]c21)c1ccccc1

> <preferred_name>
Benzoxiquine

> <dsstox_substance_id>
DTXSID5046069

> <dsstox_compound_id>
DTXCID3026069

> <qc_level>
DSSTox_Low

> <Canonical_QSARr>
O=C(OC1=CC=CC2C=CC=NC=21)C1C=CC=CC=1

> <InChI_Code_QSARr>
InChI=1S/C16H11NO2/c18-16(13-6-2-1-3-7-13)19-14-10-4-8-12-9-5-11-17-15(12)14/h1-11H

> <InChI Key_QSARr>
BHKPHCKISVSDGV-UHFFFAOYSA-N

> <Salt_Solvent>


> <Salt_Solvent_ID>
0

> <MPID>
100211

> <Tr_1_Tst_0>
1

> <Ready_Biodeg>
1.0

$$$$
Row194
  Mrv171c012251911052D          

 14 15  0  0  0  0            999 V2000
    0.7638   -3.8012    0.0000 O   0  0  0  0  0  0  0  0  0  0  0  0
    0.7638   -2.9762    0.0000 C   0  0  0  0  0  0  0  0  0  0  0  0
    1.4783   -2.5637    0.0000 C   0  0  0  0  0  0  0  0  0  0  0  0
    1.4783   -1.7387    0.0000 C   0  0  0  0  0  0  0  0  0  0  0  0
    0.7638   -1.3262    0.0000 C   0  0  0  0  0  0  0  0  0  0  0  0
    0.7638   -0.5012    0.0000 C   0  0  0  0  0  0  0  0  0  0  0  0
    1.4783   -0.0887    0.0000 C   0  0  0  0  0  0  0  0  0  0  0  0
    2.1927   -0.5012    0.0000 C   0  0  0  0  0  0  0  0  0  0  0  0
    2.9072   -0.0887    0.0000 C   0  0  0  0  0  0  0  0  0  0  0  0
    3.6217   -0.5012    0.0000 C   0  0  0  0  0  0  0  0  0  0  0  0
    3.6217   -1.3262    0.0000 C   0  0  0  0  0  0  0  0  0  0  0  0
    2.9072   -1.7387    0.0000 C   0  0  0  0  0  0  0  0  0  0  0  0
    2.1927   -1.3262    0.0000 C   0  0  0  0  0  0  0  0  0  0  0  0
    0.0493   -2.5637    0.0000 O   0  0  0  0  0  0  0  0  0  0  0  0
  1  2  1  0  0  0  0
  2  3  1  0  0  0  0
  3  4  1  0  0  0  0
  5  4  1  0  0  0  0
  6  5  2  0  0  0  0
  7  6  1  0  0  0  0
  8  7  2  0  0  0  0
  8  9  1  0  0  0  0
  9 10  2  0  0  0  0
 10 11  1  0  0  0  0
 11 12  2  0  0  0  0
 12 13  1  0  0  0  0
  4 13  2  0  0  0  0
 13  8  1  0  0  0  0
  2 14  2  0  0  0  0
M  END
> <ChemID>
100202

> <CAS>
86-87-3

> <Original_SMILES>
OC(=O)Cc1cccc2ccccc21

> <preferred_name>
1-Naphthaleneacetic acid

> <dsstox_substance_id>
DTXSID8020915

> <dsstox_compound_id>
DTXCID60915

> <qc_level>
DSSTox_Low

> <Canonical_QSARr>
OC(=O)CC1C=CC=C2C=CC=CC2=1

> <InChI_Code_QSARr>
InChI=1S/C12H10O2/c13-12(14)8-10-6-3-5-9-4-1-2-7-11(9)10/h1-7H,8H2,(H,13,14)

> <InChI Key_QSARr>
PRPINYUDVPFIRX-UHFFFAOYSA-N

> <Salt_Solvent>


> <Salt_Solvent_ID>
0

> <MPID>
100212

> <Tr_1_Tst_0>
1

> <Ready_Biodeg>
0.0

$$$$
Row195
  Mrv171c012251911052D          

 16 17  0  0  0  0            999 V2000
    3.1029   -1.1134    0.0000 C   0  0  0  0  0  0  0  0  0  0  0  0
    2.3884   -0.7009    0.0000 C   0  0  0  0  0  0  0  0  0  0  0  0
    1.6739   -1.1134    0.0000 C   0  0  0  0  0  0  0  0  0  0  0  0
    0.9595   -0.7009    0.0000 S   0  0  0  0  0  0  0  0  0  0  0  0
    0.2450   -0.2884    0.0000 O   0  0  0  0  0  0  0  0  0  0  0  0
    0.5470   -1.4154    0.0000 O   0  0  0  0  0  0  0  0  0  0  0  0
    1.3720    0.0136    0.0000 O   0  0  0  0  0  0  0  0  0  0  0  0
    1.6739   -1.9384    0.0000 C   0  0  0  0  0  0  0  0  0  0  0  0
    2.3884   -2.3509    0.0000 C   0  0  0  0  0  0  0  0  0  0  0  0
    2.3884   -3.1759    0.0000 O   0  0  0  0  0  0  0  0  0  0  0  0
    3.1029   -1.9384    0.0000 C   0  0  0  0  0  0  0  0  0  0  0  0
    3.8174   -2.3509    0.0000 C   0  0  0  0  0  0  0  0  0  0  0  0
    4.5318   -1.9384    0.0000 C   0  0  0  0  0  0  0  0  0  0  0  0
    4.5318   -1.1134    0.0000 C   0  0  0  0  0  0  0  0  0  0  0  0
    5.2463   -0.7009    0.0000 N   0  0  0  0  0  0  0  0  0  0  0  0
    3.8174   -0.7009    0.0000 C   0  0  0  0  0  0  0  0  0  0  0  0
  2  1  1  0  0  0  0
  3  2  2  0  0  0  0
  3  4  1  0  0  0  0
  4  5  2  0  0  0  0
  4  6  1  0  0  0  0
  4  7  2  0  0  0  0
  8  3  1  0  0  0  0
  9  8  2  0  0  0  0
  9 10  1  0  0  0  0
 11  9  1  0  0  0  0
 11  1  2  0  0  0  0
 12 11  1  0  0  0  0
 13 12  2  0  0  0  0
 14 13  1  0  0  0  0
 14 15  1  0  0  0  0
 16 14  2  0  0  0  0
  1 16  1  0  0  0  0
M  END
> <ChemID>
100203

> <CAS>
87-02-5

> <Original_SMILES>
Nc1cc2cc(cc(O)c2cc1)S(O)(=O)=O

> <preferred_name>
7-Amino-4-hydroxynaphthalene-2-sulfonic acid

> <dsstox_substance_id>
DTXSID7026520

> <dsstox_compound_id>
DTXCID206520

> <qc_level>
DSSTox_Low

> <Canonical_QSARr>
NC1=CC2C=C(C=C(O)C=2C=C1)S(O)(=O)=O

> <InChI_Code_QSARr>
InChI=1S/C10H9NO4S/c11-7-1-2-9-6(3-7)4-8(5-10(9)12)16(13,14)15/h1-5,12H,11H2,(H,13,14,15)

> <InChI Key_QSARr>
KYARBIJYVGJZLB-UHFFFAOYSA-N

> <Salt_Solvent>


> <Salt_Solvent_ID>
0

> <MPID>
100213

> <Tr_1_Tst_0>
1

> <Ready_Biodeg>
0.0

$$$$
Row196
  Mrv171c012251911052D          

 15 15  0  0  0  0            999 V2000
    2.0625   -0.6695    0.0000 C   0  0  0  0  0  0  0  0  0  0  0  0
    2.7770   -1.0820    0.0000 O   0  0  0  0  0  0  0  0  0  0  0  0
    3.4914   -0.6695    0.0000 C   0  0  0  0  0  0  0  0  0  0  0  0
    4.2059   -1.0820    0.0000 C   0  0  0  0  0  0  0  0  0  0  0  0
    4.9204   -0.6695    0.0000 C   0  0  0  0  0  0  0  0  0  0  0  0
    5.6348   -1.0820    0.0000 C   0  0  0  0  0  0  0  0  0  0  0  0
    4.9204    0.1555    0.0000 C   0  0  0  0  0  0  0  0  0  0  0  0
    1.3480   -1.0820    0.0000 C   0  0  0  0  0  0  0  0  0  0  0  0
    0.6335   -0.6695    0.0000 C   0  0  0  0  0  0  0  0  0  0  0  0
   -0.0809   -1.0820    0.0000 C   0  0  0  0  0  0  0  0  0  0  0  0
   -0.0809   -1.9070    0.0000 C   0  0  0  0  0  0  0  0  0  0  0  0
    0.6335   -2.3195    0.0000 C   0  0  0  0  0  0  0  0  0  0  0  0
    1.3480   -1.9070    0.0000 C   0  0  0  0  0  0  0  0  0  0  0  0
    2.0625   -2.3195    0.0000 O   0  0  0  0  0  0  0  0  0  0  0  0
    2.0625    0.1555    0.0000 O   0  0  0  0  0  0  0  0  0  0  0  0
  1  2  1  0  0  0  0
  2  3  1  0  0  0  0
  3  4  1  0  0  0  0
  4  5  1  0  0  0  0
  5  6  1  0  0  0  0
  5  7  1  0  0  0  0
  1  8  1  0  0  0  0
  9  8  1  0  0  0  0
 10  9  2  0  0  0  0
 11 10  1  0  0  0  0
 12 11  2  0  0  0  0
 13 12  1  0  0  0  0
  8 13  2  0  0  0  0
 13 14  1  0  0  0  0
  1 15  2  0  0  0  0
M  END
> <ChemID>
100204

> <CAS>
87-20-7

> <Original_SMILES>
CC(C)CCOC(=O)c1ccccc1O

> <preferred_name>
Isoamyl salicylate

> <dsstox_substance_id>
DTXSID9041655

> <dsstox_compound_id>
DTXCID7021655

> <qc_level>
DSSTox_Low

> <Canonical_QSARr>
CC(C)CCOC(=O)C1C=CC=CC=1O

> <InChI_Code_QSARr>
InChI=1S/C12H16O3/c1-9(2)7-8-15-12(14)10-5-3-4-6-11(10)13/h3-6,9,13H,7-8H2,1-2H3

> <InChI Key_QSARr>
PMGCQNGBLMMXEW-UHFFFAOYSA-N

> <Salt_Solvent>


> <Salt_Solvent_ID>
0

> <MPID>
100214

> <Tr_1_Tst_0>
0

> <Ready_Biodeg>
1.0

$$$$
Row197
  Mrv171c012251911052D          

  9  9  0  0  0  0            999 V2000
    0.1731   -2.4381    0.0000 N   0  0  0  0  0  0  0  0  0  0  0  0
    0.8876   -2.0256    0.0000 C   0  0  0  0  0  0  0  0  0  0  0  0
    1.6021   -2.4381    0.0000 C   0  0  0  0  0  0  0  0  0  0  0  0
    2.3166   -2.0256    0.0000 C   0  0  0  0  0  0  0  0  0  0  0  0
    2.3166   -1.2006    0.0000 C   0  0  0  0  0  0  0  0  0  0  0  0
    1.6021   -0.7881    0.0000 C   0  0  0  0  0  0  0  0  0  0  0  0
    1.6021    0.0369    0.0000 C   0  0  0  0  0  0  0  0  0  0  0  0
    0.8876   -1.2006    0.0000 C   0  0  0  0  0  0  0  0  0  0  0  0
    0.1731   -0.7881    0.0000 C   0  0  0  0  0  0  0  0  0  0  0  0
  1  2  1  0  0  0  0
  3  2  1  0  0  0  0
  4  3  2  0  0  0  0
  5  4  1  0  0  0  0
  6  5  2  0  0  0  0
  6  7  1  0  0  0  0
  8  6  1  0  0  0  0
  2  8  2  0  0  0  0
  8  9  1  0  0  0  0
M  END
> <ChemID>
100205

> <CAS>
87-59-2

> <Original_SMILES>
Cc1cccc(N)c1C

> <preferred_name>
2,3-Dimethylaniline

> <dsstox_substance_id>
DTXSID3026304

> <dsstox_compound_id>
DTXCID806304

> <qc_level>
DSSTox_Low

> <Canonical_QSARr>
CC1=C(N)C=CC=C1C

> <InChI_Code_QSARr>
InChI=1S/C8H11N/c1-6-4-3-5-8(9)7(6)2/h3-5H,9H2,1-2H3

> <InChI Key_QSARr>
VVAKEQGKZNKUSU-UHFFFAOYSA-N

> <Salt_Solvent>


> <Salt_Solvent_ID>
0

> <MPID>
100215

> <Tr_1_Tst_0>
1

> <Ready_Biodeg>
0.0

$$$$
Row198
  Mrv171c012251911052D          

  9  9  0  0  0  0            999 V2000
    2.3959   -0.7881    0.0000 Cl  0  0  0  0  0  0  0  0  0  0  0  0
    1.6815   -1.2006    0.0000 C   0  0  0  0  0  0  0  0  0  0  0  0
    0.9670   -0.7881    0.0000 C   0  0  0  0  0  0  0  0  0  0  0  0
    0.9670    0.0369    0.0000 Cl  0  0  0  0  0  0  0  0  0  0  0  0
    0.2525   -1.2006    0.0000 C   0  0  0  0  0  0  0  0  0  0  0  0
    0.2525   -2.0256    0.0000 C   0  0  0  0  0  0  0  0  0  0  0  0
    0.9670   -2.4381    0.0000 C   0  0  0  0  0  0  0  0  0  0  0  0
    1.6815   -2.0256    0.0000 C   0  0  0  0  0  0  0  0  0  0  0  0
    2.3959   -2.4381    0.0000 Cl  0  0  0  0  0  0  0  0  0  0  0  0
  1  2  1  0  0  0  0
  3  2  1  0  0  0  0
  3  4  1  0  0  0  0
  5  3  2  0  0  0  0
  6  5  1  0  0  0  0
  7  6  2  0  0  0  0
  8  7  1  0  0  0  0
  2  8  2  0  0  0  0
  8  9  1  0  0  0  0
M  END
> <ChemID>
100206

> <CAS>
87-61-6

> <Original_SMILES>
Clc1c(Cl)cccc1Cl

> <preferred_name>
1,2,3-Trichlorobenzene

> <dsstox_substance_id>
DTXSID8026193

> <dsstox_compound_id>
DTXCID706193

> <qc_level>
DSSTox_High

> <Canonical_QSARr>
ClC1C=CC=C(Cl)C=1Cl

> <InChI_Code_QSARr>
InChI=1S/C6H3Cl3/c7-4-2-1-3-5(8)6(4)9/h1-3H

> <InChI Key_QSARr>
RELMFMZEBKVZJC-UHFFFAOYSA-N

> <Salt_Solvent>


> <Salt_Solvent_ID>
0

> <MPID>
100216

> <Tr_1_Tst_0>
1

> <Ready_Biodeg>
0.0

$$$$
Row199
  Mrv171c012251911052D          

  9  9  0  0  0  0            999 V2000
    2.3959   -0.7881    0.0000 N   0  0  0  0  0  0  0  0  0  0  0  0
    1.6815   -1.2006    0.0000 C   0  0  0  0  0  0  0  0  0  0  0  0
    0.9670   -0.7881    0.0000 C   0  0  0  0  0  0  0  0  0  0  0  0
    0.9670    0.0369    0.0000 C   0  0  0  0  0  0  0  0  0  0  0  0
    0.2525   -1.2006    0.0000 C   0  0  0  0  0  0  0  0  0  0  0  0
    0.2525   -2.0256    0.0000 C   0  0  0  0  0  0  0  0  0  0  0  0
    0.9670   -2.4381    0.0000 C   0  0  0  0  0  0  0  0  0  0  0  0
    1.6815   -2.0256    0.0000 C   0  0  0  0  0  0  0  0  0  0  0  0
    2.3959   -2.4381    0.0000 C   0  0  0  0  0  0  0  0  0  0  0  0
  1  2  1  0  0  0  0
  3  2  1  0  0  0  0
  3  4  1  0  0  0  0
  5  3  2  0  0  0  0
  6  5  1  0  0  0  0
  7  6  2  0  0  0  0
  8  7  1  0  0  0  0
  2  8  2  0  0  0  0
  8  9  1  0  0  0  0
M  END
> <ChemID>
100207

> <CAS>
87-62-7

> <Original_SMILES>
Cc1cccc(C)c1N

> <preferred_name>
2,6-Dimethylaniline

> <dsstox_substance_id>
DTXSID8026307

> <dsstox_compound_id>
DTXCID006307

> <qc_level>
DSSTox_Low

> <Canonical_QSARr>
CC1C=CC=C(C)C=1N

> <InChI_Code_QSARr>
InChI=1S/C8H11N/c1-6-4-3-5-7(2)8(6)9/h3-5H,9H2,1-2H3

> <InChI Key_QSARr>
UFFBMTHBGFGIHF-UHFFFAOYSA-N

> <Salt_Solvent>


> <Salt_Solvent_ID>
0

> <MPID>
100217

> <Tr_1_Tst_0>
1

> <Ready_Biodeg>
0.0

$$$$
Row200
  Mrv171c012251911052D          

  9  9  0  0  0  0            999 V2000
    2.3959   -0.7881    0.0000 O   0  0  0  0  0  0  0  0  0  0  0  0
    1.6815   -1.2006    0.0000 C   0  0  0  0  0  0  0  0  0  0  0  0
    0.9670   -0.7881    0.0000 C   0  0  0  0  0  0  0  0  0  0  0  0
    0.9670    0.0369    0.0000 Cl  0  0  0  0  0  0  0  0  0  0  0  0
    0.2525   -1.2006    0.0000 C   0  0  0  0  0  0  0  0  0  0  0  0
    0.2525   -2.0256    0.0000 C   0  0  0  0  0  0  0  0  0  0  0  0
    0.9670   -2.4381    0.0000 C   0  0  0  0  0  0  0  0  0  0  0  0
    1.6815   -2.0256    0.0000 C   0  0  0  0  0  0  0  0  0  0  0  0
    2.3959   -2.4381    0.0000 Cl  0  0  0  0  0  0  0  0  0  0  0  0
  1  2  1  0  0  0  0
  3  2  1  0  0  0  0
  3  4  1  0  0  0  0
  5  3  2  0  0  0  0
  6  5  1  0  0  0  0
  7  6  2  0  0  0  0
  8  7  1  0  0  0  0
  2  8  2  0  0  0  0
  8  9  1  0  0  0  0
M  END
> <ChemID>
100208

> <CAS>
87-65-0

> <Original_SMILES>
Oc1c(Cl)cccc1Cl

> <preferred_name>
2,6-Dichlorophenol

> <dsstox_substance_id>
DTXSID2025004

> <dsstox_compound_id>
DTXCID105004

> <qc_level>
DSSTox_Low

> <Canonical_QSARr>
OC1C(Cl)=CC=CC=1Cl

> <InChI_Code_QSARr>
InChI=1S/C6H4Cl2O/c7-4-2-1-3-5(8)6(4)9/h1-3,9H

> <InChI Key_QSARr>
HOLHYSJJBXSLMV-UHFFFAOYSA-N

> <Salt_Solvent>


> <Salt_Solvent_ID>
0

> <MPID>
100218

> <Tr_1_Tst_0>
0

> <Ready_Biodeg>
0.0

$$$$
Row201
  Mrv171c012251911052D          

  9  9  0  0  0  0            999 V2000
    2.3959   -0.7881    0.0000 O   0  0  0  0  0  0  0  0  0  0  0  0
    1.6815   -1.2006    0.0000 C   0  0  0  0  0  0  0  0  0  0  0  0
    0.9670   -0.7881    0.0000 C   0  0  0  0  0  0  0  0  0  0  0  0
    0.9670    0.0369    0.0000 O   0  0  0  0  0  0  0  0  0  0  0  0
    0.2525   -1.2006    0.0000 C   0  0  0  0  0  0  0  0  0  0  0  0
    0.2525   -2.0256    0.0000 C   0  0  0  0  0  0  0  0  0  0  0  0
    0.9670   -2.4381    0.0000 C   0  0  0  0  0  0  0  0  0  0  0  0
    1.6815   -2.0256    0.0000 C   0  0  0  0  0  0  0  0  0  0  0  0
    2.3959   -2.4381    0.0000 O   0  0  0  0  0  0  0  0  0  0  0  0
  1  2  1  0  0  0  0
  3  2  1  0  0  0  0
  3  4  1  0  0  0  0
  5  3  2  0  0  0  0
  6  5  1  0  0  0  0
  7  6  2  0  0  0  0
  8  7  1  0  0  0  0
  2  8  2  0  0  0  0
  8  9  1  0  0  0  0
M  END
> <ChemID>
100209

> <CAS>
87-66-1

> <Original_SMILES>
Oc1c(O)cccc1O

> <preferred_name>
Pyrogallol

> <dsstox_substance_id>
DTXSID6025983

> <dsstox_compound_id>
DTXCID905983

> <qc_level>
DSSTox_Low

> <Canonical_QSARr>
OC1C=CC=C(O)C=1O

> <InChI_Code_QSARr>
InChI=1S/C6H6O3/c7-4-2-1-3-5(8)6(4)9/h1-3,7-9H

> <InChI Key_QSARr>
WQGWDDDVZFFDIG-UHFFFAOYSA-N

> <Salt_Solvent>


> <Salt_Solvent_ID>
0

> <MPID>
100219

> <Tr_1_Tst_0>
1

> <Ready_Biodeg>
1.0

$$$$
Row202
  Mrv171c012251911052D          

 10  9  0  0  0  0            999 V2000
    1.4316   -1.2349    0.0000 C   0  0  0  0  0  0  0  0  0  0  0  0
    1.4316   -2.0599    0.0000 O   0  0  0  0  0  0  0  0  0  0  0  0
    0.7172   -0.8224    0.0000 C   0  0  0  0  0  0  0  0  0  0  0  0
    0.0027   -1.2349    0.0000 O   0  0  0  0  0  0  0  0  0  0  0  0
    0.7172    0.0026    0.0000 O   0  0  0  0  0  0  0  0  0  0  0  0
    2.1461   -0.8224    0.0000 C   0  0  0  0  0  0  0  0  0  0  0  0
    2.1461    0.0026    0.0000 O   0  0  0  0  0  0  0  0  0  0  0  0
    2.8606   -1.2349    0.0000 C   0  0  0  0  0  0  0  0  0  0  0  0
    3.5751   -0.8224    0.0000 O   0  0  0  0  0  0  0  0  0  0  0  0
    2.8606   -2.0599    0.0000 O   0  0  0  0  0  0  0  0  0  0  0  0
  1  2  1  0  0  0  0
  1  3  1  0  0  0  0
  3  4  1  0  0  0  0
  3  5  2  0  0  0  0
  1  6  1  0  0  0  0
  6  7  1  0  0  0  0
  6  8  1  0  0  0  0
  8  9  1  0  0  0  0
  8 10  2  0  0  0  0
M  END
> <ChemID>
100210

> <CAS>
87-69-4

> <Original_SMILES>
OC(=O)[C@H](O)[C@@H](O)C(O)=O

> <preferred_name>
L-Tartaric acid

> <dsstox_substance_id>
DTXSID8023632

> <dsstox_compound_id>
DTXCID203632

> <qc_level>
DSSTox_High

> <Canonical_QSARr>
OC(=O)C(O)C(O)C(O)=O

> <InChI_Code_QSARr>
InChI=1S/C4H6O6/c5-1(3(7)8)2(6)4(9)10/h1-2,5-6H,(H,7,8)(H,9,10)

> <InChI Key_QSARr>
FEWJPZIEWOKRBE-UHFFFAOYSA-N

> <Salt_Solvent>


> <Salt_Solvent_ID>
0

> <MPID>
100220

> <Tr_1_Tst_0>
1

> <Ready_Biodeg>
1.0

$$$$
Row203
  Mrv171c012251911052D          

 12 12  0  0  0  0            999 V2000
    2.8589   -0.8238    0.0000 Br  0  0  0  0  0  0  0  0  0  0  0  0
    2.1444   -1.2363    0.0000 C   0  0  0  0  0  0  0  0  0  0  0  0
    1.4300   -0.8238    0.0000 C   0  0  0  0  0  0  0  0  0  0  0  0
    1.4300    0.0012    0.0000 Br  0  0  0  0  0  0  0  0  0  0  0  0
    0.7155   -1.2363    0.0000 C   0  0  0  0  0  0  0  0  0  0  0  0
    0.0010   -0.8238    0.0000 Br  0  0  0  0  0  0  0  0  0  0  0  0
    0.7155   -2.0613    0.0000 C   0  0  0  0  0  0  0  0  0  0  0  0
    0.0010   -2.4738    0.0000 Br  0  0  0  0  0  0  0  0  0  0  0  0
    1.4300   -2.4738    0.0000 C   0  0  0  0  0  0  0  0  0  0  0  0
    1.4300   -3.2988    0.0000 Br  0  0  0  0  0  0  0  0  0  0  0  0
    2.1444   -2.0613    0.0000 C   0  0  0  0  0  0  0  0  0  0  0  0
    2.8589   -2.4738    0.0000 Br  0  0  0  0  0  0  0  0  0  0  0  0
  1  2  1  0  0  0  0
  3  2  2  0  0  0  0
  3  4  1  0  0  0  0
  5  3  1  0  0  0  0
  5  6  1  0  0  0  0
  7  5  2  0  0  0  0
  7  8  1  0  0  0  0
  9  7  1  0  0  0  0
  9 10  1  0  0  0  0
 11  9  2  0  0  0  0
  2 11  1  0  0  0  0
 11 12  1  0  0  0  0
M  END
> <ChemID>
100211

> <CAS>
87-82-1

> <Original_SMILES>
Brc1c(Br)c(Br)c(Br)c(Br)c1Br

> <preferred_name>
Hexabromobenzene

> <dsstox_substance_id>
DTXSID1024128

> <dsstox_compound_id>
DTXCID404128

> <qc_level>
DSSTox_Low

> <Canonical_QSARr>
BrC1C(Br)=C(Br)C(Br)=C(Br)C=1Br

> <InChI_Code_QSARr>
InChI=1S/C6Br6/c7-1-2(8)4(10)6(12)5(11)3(1)9

> <InChI Key_QSARr>
CAYGQBVSOZLICD-UHFFFAOYSA-N

> <Salt_Solvent>


> <Salt_Solvent_ID>
0

> <MPID>
100221

> <Tr_1_Tst_0>
1

> <Ready_Biodeg>
0.0

$$$$
Row204
  Mrv171c012251911052D          

 12 12  0  0  0  0            999 V2000
    2.3645   -1.0164    0.0000 C   0  0  0  0  0  0  0  0  0  0  0  0
    3.0790   -0.6039    0.0000 C   0  0  0  0  0  0  0  0  0  0  0  0
    1.6500   -0.6039    0.0000 C   0  0  0  0  0  0  0  0  0  0  0  0
    1.6500    0.2211    0.0000 Br  0  0  0  0  0  0  0  0  0  0  0  0
    0.9355   -1.0164    0.0000 C   0  0  0  0  0  0  0  0  0  0  0  0
    0.2211   -0.6039    0.0000 Br  0  0  0  0  0  0  0  0  0  0  0  0
    0.9355   -1.8414    0.0000 C   0  0  0  0  0  0  0  0  0  0  0  0
    0.2211   -2.2539    0.0000 Br  0  0  0  0  0  0  0  0  0  0  0  0
    1.6500   -2.2539    0.0000 C   0  0  0  0  0  0  0  0  0  0  0  0
    1.6500   -3.0789    0.0000 Br  0  0  0  0  0  0  0  0  0  0  0  0
    2.3645   -1.8414    0.0000 C   0  0  0  0  0  0  0  0  0  0  0  0
    3.0790   -2.2539    0.0000 Br  0  0  0  0  0  0  0  0  0  0  0  0
  1  2  1  0  0  0  0
  3  1  1  0  0  0  0
  3  4  1  0  0  0  0
  5  3  2  0  0  0  0
  5  6  1  0  0  0  0
  7  5  1  0  0  0  0
  7  8  1  0  0  0  0
  9  7  2  0  0  0  0
  9 10  1  0  0  0  0
 11  9  1  0  0  0  0
  1 11  2  0  0  0  0
 11 12  1  0  0  0  0
M  END
> <ChemID>
100212

> <CAS>
87-83-2

> <Original_SMILES>
Cc1c(Br)c(Br)c(Br)c(Br)c1Br

> <preferred_name>
Pentabromotoluene

> <dsstox_substance_id>
DTXSID3025833

> <dsstox_compound_id>
DTXCID205833

> <qc_level>
DSSTox_Low

> <Canonical_QSARr>
CC1C(Br)=C(Br)C(Br)=C(Br)C=1Br

> <InChI_Code_QSARr>
InChI=1S/C7H3Br5/c1-2-3(8)5(10)7(12)6(11)4(2)9/h1H3

> <InChI Key_QSARr>
OZHJEQVYCBTHJT-UHFFFAOYSA-N

> <Salt_Solvent>


> <Salt_Solvent_ID>
0

> <MPID>
100222

> <Tr_1_Tst_0>
0

> <Ready_Biodeg>
0.0

$$$$
Row205
  Mrv171c012251911052D          

 12 12  0  0  0  0            999 V2000
    3.0761   -0.6015    0.0000 Br  0  0  0  0  0  0  0  0  0  0  0  0
    2.3616   -1.0140    0.0000 C   0  0  0  0  0  0  0  0  0  0  0  0
    1.6472   -0.6015    0.0000 C   0  0  0  0  0  0  0  0  0  0  0  0
    1.6472    0.2235    0.0000 Br  0  0  0  0  0  0  0  0  0  0  0  0
    0.9327   -1.0140    0.0000 C   0  0  0  0  0  0  0  0  0  0  0  0
    0.2182   -0.6015    0.0000 Br  0  0  0  0  0  0  0  0  0  0  0  0
    0.9327   -1.8390    0.0000 C   0  0  0  0  0  0  0  0  0  0  0  0
    0.2182   -2.2515    0.0000 Cl  0  0  0  0  0  0  0  0  0  0  0  0
    1.6472   -2.2515    0.0000 C   0  0  0  0  0  0  0  0  0  0  0  0
    1.6472   -3.0765    0.0000 Br  0  0  0  0  0  0  0  0  0  0  0  0
    2.3616   -1.8390    0.0000 C   0  0  0  0  0  0  0  0  0  0  0  0
    3.0761   -2.2515    0.0000 Br  0  0  0  0  0  0  0  0  0  0  0  0
  1  2  1  0  0  0  0
  3  2  1  0  0  0  0
  3  4  1  0  0  0  0
  5  3  1  0  0  0  0
  5  6  1  0  0  0  0
  7  5  1  0  0  0  0
  7  8  1  0  0  0  0
  9  7  1  0  0  0  0
  9 10  1  0  0  0  0
 11  9  1  0  0  0  0
  2 11  1  0  0  0  0
 11 12  1  0  0  0  0
M  END
> <ChemID>
100213

> <CAS>
87-84-3

> <Original_SMILES>
ClC1C(Br)C(Br)C(Br)C(Br)C1Br

> <preferred_name>
Pentabromochlorocyclohexane

> <dsstox_substance_id>
DTXSID4025828

> <dsstox_compound_id>
DTXCID905828

> <qc_level>
DSSTox_Low

> <Canonical_QSARr>
ClC1C(Br)C(Br)C(Br)C(Br)C1Br

> <InChI_Code_QSARr>
InChI=1S/C6H6Br5Cl/c7-1-2(8)4(10)6(12)5(11)3(1)9/h1-6H

> <InChI Key_QSARr>
UZOSVZSBPTTWIG-UHFFFAOYSA-N

> <Salt_Solvent>


> <Salt_Solvent_ID>
0

> <MPID>
100223

> <Tr_1_Tst_0>
1

> <Ready_Biodeg>
0.0

$$$$
Row206
  Mrv171c012251911052D          

 12 12  0  0  0  0            999 V2000
    3.0761   -0.6015    0.0000 O   0  0  0  0  0  0  0  0  0  0  0  0
    2.3616   -1.0140    0.0000 C   0  0  0  0  0  0  0  0  0  0  0  0
    1.6472   -0.6015    0.0000 C   0  0  0  0  0  0  0  0  0  0  0  0
    1.6472    0.2235    0.0000 Cl  0  0  0  0  0  0  0  0  0  0  0  0
    0.9327   -1.0140    0.0000 C   0  0  0  0  0  0  0  0  0  0  0  0
    0.2182   -0.6015    0.0000 Cl  0  0  0  0  0  0  0  0  0  0  0  0
    0.9327   -1.8390    0.0000 C   0  0  0  0  0  0  0  0  0  0  0  0
    0.2182   -2.2515    0.0000 Cl  0  0  0  0  0  0  0  0  0  0  0  0
    1.6472   -2.2515    0.0000 C   0  0  0  0  0  0  0  0  0  0  0  0
    1.6472   -3.0765    0.0000 Cl  0  0  0  0  0  0  0  0  0  0  0  0
    2.3616   -1.8390    0.0000 C   0  0  0  0  0  0  0  0  0  0  0  0
    3.0761   -2.2515    0.0000 Cl  0  0  0  0  0  0  0  0  0  0  0  0
  1  2  1  0  0  0  0
  3  2  1  0  0  0  0
  3  4  1  0  0  0  0
  5  3  2  0  0  0  0
  5  6  1  0  0  0  0
  7  5  1  0  0  0  0
  7  8  1  0  0  0  0
  9  7  2  0  0  0  0
  9 10  1  0  0  0  0
 11  9  1  0  0  0  0
  2 11  2  0  0  0  0
 11 12  1  0  0  0  0
M  END
> <ChemID>
100214

> <CAS>
87-86-5

> <Original_SMILES>
Oc1c(Cl)c(Cl)c(Cl)c(Cl)c1Cl

> <preferred_name>
Pentachlorophenol

> <dsstox_substance_id>
DTXSID7021106

> <dsstox_compound_id>
DTXCID701106

> <qc_level>
DSSTox_Low

> <Canonical_QSARr>
OC1C(Cl)=C(Cl)C(Cl)=C(Cl)C=1Cl

> <InChI_Code_QSARr>
InChI=1S/C6HCl5O/c7-1-2(8)4(10)6(12)5(11)3(1)9/h12H

> <InChI Key_QSARr>
IZUPBVBPLAPZRR-UHFFFAOYSA-N

> <Salt_Solvent>


> <Salt_Solvent_ID>
0

> <MPID>
100224

> <Tr_1_Tst_0>
1

> <Ready_Biodeg>
0.0

$$$$
Row207
  Mrv171c012251911052D          

 12 12  0  0  0  0            999 V2000
    2.3795   -1.0231    0.0000 N   0  0  0  0  0  0  0  0  0  0  0  0
    3.0940   -0.6106    0.0000 Cl  0  0  0  0  0  0  0  0  0  0  0  0
    1.6650   -0.6106    0.0000 C   0  0  0  0  0  0  0  0  0  0  0  0
    1.6650    0.2144    0.0000 O   0  0  0  0  0  0  0  0  0  0  0  0
    0.9506   -1.0231    0.0000 N   0  0  0  0  0  0  0  0  0  0  0  0
    0.2361   -0.6106    0.0000 Cl  0  0  0  0  0  0  0  0  0  0  0  0
    0.9506   -1.8481    0.0000 C   0  0  0  0  0  0  0  0  0  0  0  0
    0.2361   -2.2606    0.0000 O   0  0  0  0  0  0  0  0  0  0  0  0
    1.6650   -2.2606    0.0000 N   0  0  0  0  0  0  0  0  0  0  0  0
    1.6650   -3.0856    0.0000 Cl  0  0  0  0  0  0  0  0  0  0  0  0
    2.3795   -1.8481    0.0000 C   0  0  0  0  0  0  0  0  0  0  0  0
    3.0940   -2.2606    0.0000 O   0  0  0  0  0  0  0  0  0  0  0  0
  1  2  1  0  0  0  0
  3  1  1  0  0  0  0
  3  4  2  0  0  0  0
  5  3  1  0  0  0  0
  5  6  1  0  0  0  0
  7  5  1  0  0  0  0
  7  8  2  0  0  0  0
  9  7  1  0  0  0  0
  9 10  1  0  0  0  0
 11  9  1  0  0  0  0
  1 11  1  0  0  0  0
 11 12  2  0  0  0  0
M  END
> <ChemID>
100215

> <CAS>
87-90-1

> <Original_SMILES>
O=C1N(Cl)C(=O)N(Cl)C(=O)N1Cl

> <preferred_name>
Symclosene

> <dsstox_substance_id>
DTXSID2026523

> <dsstox_compound_id>
DTXCID406523

> <qc_level>
DSSTox_High

> <Canonical_QSARr>
O=C1N(Cl)C(=O)N(Cl)C(=O)N1Cl

> <InChI_Code_QSARr>
InChI=1S/C3Cl3N3O3/c4-7-1(10)8(5)3(12)9(6)2(7)11

> <InChI Key_QSARr>
YRIZYWQGELRKNT-UHFFFAOYSA-N

> <Salt_Solvent>


> <Salt_Solvent_ID>
0

> <MPID>
100225

> <Tr_1_Tst_0>
1

> <Ready_Biodeg>
0.0

$$$$
Row208
  Mrv171c012251911052D          

 10 10  0  0  0  0            999 V2000
    3.0980   -0.6840    0.0000 O   0  0  0  0  0  0  0  0  0  0  0  0
    2.3835   -1.0965    0.0000 C   0  0  0  0  0  0  0  0  0  0  0  0
    1.6691   -0.6840    0.0000 C   0  0  0  0  0  0  0  0  0  0  0  0
    1.6691    0.1410    0.0000 Cl  0  0  0  0  0  0  0  0  0  0  0  0
    0.9546   -1.0965    0.0000 C   0  0  0  0  0  0  0  0  0  0  0  0
    0.9546   -1.9215    0.0000 C   0  0  0  0  0  0  0  0  0  0  0  0
    0.2401   -2.3340    0.0000 Cl  0  0  0  0  0  0  0  0  0  0  0  0
    1.6691   -2.3340    0.0000 C   0  0  0  0  0  0  0  0  0  0  0  0
    2.3835   -1.9215    0.0000 C   0  0  0  0  0  0  0  0  0  0  0  0
    3.0980   -2.3340    0.0000 Cl  0  0  0  0  0  0  0  0  0  0  0  0
  1  2  1  0  0  0  0
  3  2  1  0  0  0  0
  3  4  1  0  0  0  0
  5  3  2  0  0  0  0
  6  5  1  0  0  0  0
  6  7  1  0  0  0  0
  8  6  2  0  0  0  0
  9  8  1  0  0  0  0
  2  9  2  0  0  0  0
  9 10  1  0  0  0  0
M  END
> <ChemID>
100216

> <CAS>
88-06-2

> <Original_SMILES>
Oc1c(Cl)cc(Cl)cc1Cl

> <preferred_name>
2,4,6-Trichlorophenol

> <dsstox_substance_id>
DTXSID5021386

> <dsstox_compound_id>
DTXCID501386

> <qc_level>
DSSTox_High

> <Canonical_QSARr>
OC1C(Cl)=CC(Cl)=CC=1Cl

> <InChI_Code_QSARr>
InChI=1S/C6H3Cl3O/c7-3-1-4(8)6(10)5(9)2-3/h1-2,10H

> <InChI Key_QSARr>
LINPIYWFGCPVIE-UHFFFAOYSA-N

> <Salt_Solvent>


> <Salt_Solvent_ID>
0

> <MPID>
100226

> <Tr_1_Tst_0>
0

> <Ready_Biodeg>
1.0

$$$$
Row209
  Mrv171c012251911052D          

 11 11  0  0  0  0            999 V2000
    0.2746   -1.2229    0.0000 C   0  0  0  0  0  0  0  0  0  0  0  0
    0.9891   -1.6354    0.0000 C   0  0  0  0  0  0  0  0  0  0  0  0
    0.9891   -2.4604    0.0000 C   0  0  0  0  0  0  0  0  0  0  0  0
    1.7036   -2.8729    0.0000 C   0  0  0  0  0  0  0  0  0  0  0  0
    2.4180   -2.4604    0.0000 C   0  0  0  0  0  0  0  0  0  0  0  0
    2.4180   -1.6354    0.0000 C   0  0  0  0  0  0  0  0  0  0  0  0
    1.7036   -1.2229    0.0000 C   0  0  0  0  0  0  0  0  0  0  0  0
    1.7036   -0.3979    0.0000 S   0  0  0  0  0  0  0  0  0  0  0  0
    1.7036    0.4271    0.0000 N   0  0  0  0  0  0  0  0  0  0  0  0
    2.5286   -0.3979    0.0000 O   0  0  0  0  0  0  0  0  0  0  0  0
    0.8786   -0.3979    0.0000 O   0  0  0  0  0  0  0  0  0  0  0  0
  1  2  1  0  0  0  0
  3  2  1  0  0  0  0
  4  3  2  0  0  0  0
  5  4  1  0  0  0  0
  6  5  2  0  0  0  0
  7  6  1  0  0  0  0
  2  7  2  0  0  0  0
  7  8  1  0  0  0  0
  8  9  1  0  0  0  0
  8 10  2  0  0  0  0
  8 11  2  0  0  0  0
M  END
> <ChemID>
100217

> <CAS>
88-19-7

> <Original_SMILES>
Cc1ccccc1S(N)(=O)=O

> <preferred_name>
o-Toluenesulfonamide

> <dsstox_substance_id>
DTXSID7021362

> <dsstox_compound_id>
DTXCID301362

> <qc_level>
DSSTox_Low

> <Canonical_QSARr>
CC1C=CC=CC=1S(N)(=O)=O

> <InChI_Code_QSARr>
InChI=1S/C7H9NO2S/c1-6-4-2-3-5-7(6)11(8,9)10/h2-5H,1H3,(H2,8,9,10)

> <InChI Key_QSARr>
YCMLQMDWSXFTIF-UHFFFAOYSA-N

> <Salt_Solvent>


> <Salt_Solvent_ID>
0

> <MPID>
100227

> <Tr_1_Tst_0>
1

> <Ready_Biodeg>
0.0

$$$$
Row210
  Mrv171c012251911052D          

 11 11  0  0  0  0            999 V2000
    2.4167   -0.9593    0.0000 S   0  0  0  0  0  0  0  0  0  0  0  0
    1.7023   -1.3718    0.0000 C   0  0  0  0  0  0  0  0  0  0  0  0
    0.9878   -0.9593    0.0000 C   0  0  0  0  0  0  0  0  0  0  0  0
    0.9878   -0.1343    0.0000 N   0  0  0  0  0  0  0  0  0  0  0  0
    0.2733   -1.3718    0.0000 C   0  0  0  0  0  0  0  0  0  0  0  0
    0.2733   -2.1968    0.0000 C   0  0  0  0  0  0  0  0  0  0  0  0
    0.9878   -2.6093    0.0000 C   0  0  0  0  0  0  0  0  0  0  0  0
    1.7023   -2.1968    0.0000 C   0  0  0  0  0  0  0  0  0  0  0  0
    3.1312   -0.5468    0.0000 O   0  0  0  0  0  0  0  0  0  0  0  0
    2.8292   -1.6738    0.0000 O   0  0  0  0  0  0  0  0  0  0  0  0
    2.0042   -0.2448    0.0000 O   0  0  0  0  0  0  0  0  0  0  0  0
  1  2  1  0  0  0  0
  3  2  1  0  0  0  0
  3  4  1  0  0  0  0
  5  3  2  0  0  0  0
  6  5  1  0  0  0  0
  7  6  2  0  0  0  0
  8  7  1  0  0  0  0
  2  8  2  0  0  0  0
  1  9  1  0  0  0  0
  1 10  2  0  0  0  0
  1 11  2  0  0  0  0
M  END
> <ChemID>
100218

> <CAS>
88-21-1

> <Original_SMILES>
Nc1ccccc1S(O)(=O)=O

> <preferred_name>
Orthanilic acid

> <dsstox_substance_id>
DTXSID1024463

> <dsstox_compound_id>
DTXCID204463

> <qc_level>
DSSTox_Low

> <Canonical_QSARr>
NC1=CC=CC=C1S(O)(=O)=O

> <InChI_Code_QSARr>
InChI=1S/C6H7NO3S/c7-5-3-1-2-4-6(5)11(8,9)10/h1-4H,7H2,(H,8,9,10)

> <InChI Key_QSARr>
ZMCHBSMFKQYNKA-UHFFFAOYSA-N

> <Salt_Solvent>


> <Salt_Solvent_ID>
0

> <MPID>
100228

> <Tr_1_Tst_0>
1

> <Ready_Biodeg>
0.0

$$$$
Row211
  Mrv171c012251911052D          

 12 12  0  0  0  0            999 V2000
    1.3335   -1.4946    0.0000 C   0  0  0  0  0  0  0  0  0  0  0  0
    2.0479   -1.0821    0.0000 S   0  0  0  0  0  0  0  0  0  0  0  0
    2.7624   -0.6696    0.0000 O   0  0  0  0  0  0  0  0  0  0  0  0
    1.6354   -0.3676    0.0000 O   0  0  0  0  0  0  0  0  0  0  0  0
    2.4604   -1.7965    0.0000 O   0  0  0  0  0  0  0  0  0  0  0  0
    0.6190   -1.0821    0.0000 C   0  0  0  0  0  0  0  0  0  0  0  0
    0.6190   -0.2571    0.0000 N   0  0  0  0  0  0  0  0  0  0  0  0
   -0.0955   -1.4946    0.0000 C   0  0  0  0  0  0  0  0  0  0  0  0
   -0.0955   -2.3196    0.0000 C   0  0  0  0  0  0  0  0  0  0  0  0
    0.6190   -2.7321    0.0000 C   0  0  0  0  0  0  0  0  0  0  0  0
    0.6190   -3.5571    0.0000 C   0  0  0  0  0  0  0  0  0  0  0  0
    1.3335   -2.3196    0.0000 C   0  0  0  0  0  0  0  0  0  0  0  0
  1  2  1  0  0  0  0
  2  3  2  0  0  0  0
  2  4  1  0  0  0  0
  2  5  2  0  0  0  0
  6  1  1  0  0  0  0
  6  7  1  0  0  0  0
  8  6  2  0  0  0  0
  9  8  1  0  0  0  0
 10  9  2  0  0  0  0
 10 11  1  0  0  0  0
 12 10  1  0  0  0  0
  1 12  2  0  0  0  0
M  END
> <ChemID>
100219

> <CAS>
88-44-8

> <Original_SMILES>
Cc1cc(c(N)cc1)S(O)(=O)=O

> <preferred_name>
2-Amino-5-methylbenzenesulfonic acid

> <dsstox_substance_id>
DTXSID7026526

> <dsstox_compound_id>
DTXCID606526

> <qc_level>
DSSTox_Low

> <Canonical_QSARr>
CC1C=C(C(N)=CC=1)S(O)(=O)=O

> <InChI_Code_QSARr>
InChI=1S/C7H9NO3S/c1-5-2-3-6(8)7(4-5)12(9,10)11/h2-4H,8H2,1H3,(H,9,10,11)

> <InChI Key_QSARr>
LTPSRQRIPCVMKQ-UHFFFAOYSA-N

> <Salt_Solvent>


> <Salt_Solvent_ID>
0

> <MPID>
100229

> <Tr_1_Tst_0>
1

> <Ready_Biodeg>
0.0

$$$$
Row212
  Mrv171c012251911052D          

 13 13  0  0  0  0            999 V2000
    1.3803   -1.5747    0.0000 C   0  0  0  0  0  0  0  0  0  0  0  0
    2.0948   -1.1622    0.0000 S   0  0  0  0  0  0  0  0  0  0  0  0
    2.8093   -0.7497    0.0000 O   0  0  0  0  0  0  0  0  0  0  0  0
    1.6823   -0.4477    0.0000 O   0  0  0  0  0  0  0  0  0  0  0  0
    2.5073   -1.8767    0.0000 O   0  0  0  0  0  0  0  0  0  0  0  0
    0.6658   -1.1622    0.0000 C   0  0  0  0  0  0  0  0  0  0  0  0
    0.6658   -0.3372    0.0000 N   0  0  0  0  0  0  0  0  0  0  0  0
   -0.0486   -1.5747    0.0000 C   0  0  0  0  0  0  0  0  0  0  0  0
   -0.0486   -2.3997    0.0000 C   0  0  0  0  0  0  0  0  0  0  0  0
   -0.7631   -2.8122    0.0000 C   0  0  0  0  0  0  0  0  0  0  0  0
    0.6658   -2.8122    0.0000 C   0  0  0  0  0  0  0  0  0  0  0  0
    0.6658   -3.6372    0.0000 Cl  0  0  0  0  0  0  0  0  0  0  0  0
    1.3803   -2.3997    0.0000 C   0  0  0  0  0  0  0  0  0  0  0  0
  1  2  1  0  0  0  0
  2  3  2  0  0  0  0
  2  4  1  0  0  0  0
  2  5  2  0  0  0  0
  6  1  1  0  0  0  0
  6  7  1  0  0  0  0
  8  6  2  0  0  0  0
  9  8  1  0  0  0  0
  9 10  1  0  0  0  0
 11  9  2  0  0  0  0
 11 12  1  0  0  0  0
 13 11  1  0  0  0  0
  1 13  2  0  0  0  0
M  END
> <ChemID>
100220

> <CAS>
88-53-9

> <Original_SMILES>
Cc1cc(N)c(cc1Cl)S(O)(=O)=O

> <preferred_name>
2-Amino-5-chloro-4-methylbenzenesulfonic acid

> <dsstox_substance_id>
DTXSID7026528

> <dsstox_compound_id>
DTXCID406528

> <qc_level>
DSSTox_Low

> <Canonical_QSARr>
CC1C=C(N)C(=CC=1Cl)S(O)(=O)=O

> <InChI_Code_QSARr>
InChI=1S/C7H8ClNO3S/c1-4-2-6(9)7(3-5(4)8)13(10,11)12/h2-3H,9H2,1H3,(H,10,11,12)

> <InChI Key_QSARr>
VYZCFAPUHSSYCC-UHFFFAOYSA-N

> <Salt_Solvent>


> <Salt_Solvent_ID>
0

> <MPID>
100230

> <Tr_1_Tst_0>
0

> <Ready_Biodeg>
0.0

$$$$
Row213
  Mrv171c012251911052D          

 12 12  0  0  0  0            999 V2000
    1.6090   -1.8918    0.0000 C   0  0  0  0  0  0  0  0  0  0  0  0
    2.3235   -1.4793    0.0000 S   0  0  0  0  0  0  0  0  0  0  0  0
    3.0379   -1.0668    0.0000 O   0  0  0  0  0  0  0  0  0  0  0  0
    1.9110   -0.7649    0.0000 O   0  0  0  0  0  0  0  0  0  0  0  0
    2.7360   -2.1938    0.0000 O   0  0  0  0  0  0  0  0  0  0  0  0
    0.8945   -1.4793    0.0000 C   0  0  0  0  0  0  0  0  0  0  0  0
    0.8945   -0.6543    0.0000 C   0  0  0  0  0  0  0  0  0  0  0  0
    0.1800   -1.8918    0.0000 C   0  0  0  0  0  0  0  0  0  0  0  0
    0.1800   -2.7168    0.0000 C   0  0  0  0  0  0  0  0  0  0  0  0
   -0.5344   -3.1293    0.0000 C   0  0  0  0  0  0  0  0  0  0  0  0
    0.8945   -3.1293    0.0000 C   0  0  0  0  0  0  0  0  0  0  0  0
    1.6090   -2.7168    0.0000 C   0  0  0  0  0  0  0  0  0  0  0  0
  1  2  1  0  0  0  0
  2  3  2  0  0  0  0
  2  4  1  0  0  0  0
  2  5  2  0  0  0  0
  6  1  1  0  0  0  0
  6  7  1  0  0  0  0
  8  6  2  0  0  0  0
  9  8  1  0  0  0  0
  9 10  1  0  0  0  0
 11  9  2  0  0  0  0
 12 11  1  0  0  0  0
  1 12  2  0  0  0  0
M  END
> <ChemID>
100221

> <CAS>
88-61-9

> <Original_SMILES>
Cc1cc(C)c(cc1)S(O)(=O)=O

> <preferred_name>
2,4-Dimethylbenzenesulfonic acid

> <dsstox_substance_id>
DTXSID1047023

> <dsstox_compound_id>
DTXCID9027023

> <qc_level>
DSSTox_High

> <Canonical_QSARr>
CC1C=C(C)C(=CC=1)S(O)(=O)=O

> <InChI_Code_QSARr>
InChI=1S/C8H10O3S/c1-6-3-4-8(7(2)5-6)12(9,10)11/h3-5H,1-2H3,(H,9,10,11)

> <InChI Key_QSARr>
CHZLVSBMXZSPNN-UHFFFAOYSA-N

> <Salt_Solvent>


> <Salt_Solvent_ID>
0

> <MPID>
100231

> <Tr_1_Tst_0>
1

> <Ready_Biodeg>
1.0

$$$$
Row214
  Mrv171c012251911052D          

 10 10  0  0  0  0            999 V2000
    1.4289   -0.0000    0.0000 C   0  0  0  0  0  0  0  0  0  0  0  0
    1.4289    0.8250    0.0000 C   0  0  0  0  0  0  0  0  0  0  0  0
    0.7145    1.2375    0.0000 C   0  0  0  0  0  0  0  0  0  0  0  0
    0.7145    2.0625    0.0000 C   0  0  0  0  0  0  0  0  0  0  0  0
   -0.0000    2.4750    0.0000 O   0  0  0  0  0  0  0  0  0  0  0  0
    1.4289    2.4750    0.0000 O   0  0  0  0  0  0  0  0  0  0  0  0
   -0.0000    0.8250    0.0000 C   0  0  0  0  0  0  0  0  0  0  0  0
   -0.7145    1.2375    0.0000 I   0  0  0  0  0  0  0  0  0  0  0  0
   -0.0000   -0.0000    0.0000 C   0  0  0  0  0  0  0  0  0  0  0  0
    0.7145   -0.4125    0.0000 C   0  0  0  0  0  0  0  0  0  0  0  0
  2  1  1  0  0  0  0
  3  2  2  0  0  0  0
  3  4  1  0  0  0  0
  4  5  1  0  0  0  0
  4  6  2  0  0  0  0
  7  3  1  0  0  0  0
  7  8  1  0  0  0  0
  9  7  2  0  0  0  0
 10  9  1  0  0  0  0
  1 10  2  0  0  0  0
M  END
> <ChemID>
100222

> <CAS>
88-67-5

> <Original_SMILES>
OC(=O)c1ccccc1I

> <preferred_name>
Benzoic acid, 2-iodo-

> <dsstox_substance_id>
DTXSID6058976

> <dsstox_compound_id>
DTXCID6048624

> <qc_level>
Public_High

> <Canonical_QSARr>
OC(=O)C1=CC=CC=C1I

> <InChI_Code_QSARr>
InChI=1S/C7H5IO2/c8-6-4-2-1-3-5(6)7(9)10/h1-4H,(H,9,10)

> <InChI Key_QSARr>
CJNZAXGUTKBIHP-UHFFFAOYSA-N

> <Salt_Solvent>


> <Salt_Solvent_ID>
0

> <MPID>
100232

> <Tr_1_Tst_0>
1

> <Ready_Biodeg>
0.0

$$$$
Row215
  Mrv171c012251911052D          

 10 10  0  0  0  0            999 V2000
    2.4136   -0.9140    0.0000 N   0  3  0  0  0  0  0  0  0  0  0  0
    1.6991   -1.3265    0.0000 C   0  0  0  0  0  0  0  0  0  0  0  0
    0.9846   -0.9140    0.0000 C   0  0  0  0  0  0  0  0  0  0  0  0
    0.9846   -0.0890    0.0000 C   0  0  0  0  0  0  0  0  0  0  0  0
    0.2701   -1.3265    0.0000 C   0  0  0  0  0  0  0  0  0  0  0  0
    0.2701   -2.1515    0.0000 C   0  0  0  0  0  0  0  0  0  0  0  0
    0.9846   -2.5640    0.0000 C   0  0  0  0  0  0  0  0  0  0  0  0
    1.6991   -2.1515    0.0000 C   0  0  0  0  0  0  0  0  0  0  0  0
    2.4136   -0.0890    0.0000 O   0  5  0  0  0  0  0  0  0  0  0  0
    3.1280   -1.3265    0.0000 O   0  0  0  0  0  0  0  0  0  0  0  0
  1  2  1  0  0  0  0
  3  2  1  0  0  0  0
  3  4  1  0  0  0  0
  5  3  2  0  0  0  0
  6  5  1  0  0  0  0
  7  6  2  0  0  0  0
  8  7  1  0  0  0  0
  2  8  2  0  0  0  0
  1  9  1  0  0  0  0
  1 10  2  0  0  0  0
M  CHG  2   1   1   9  -1
M  END
> <ChemID>
100223

> <CAS>
88-72-2

> <Original_SMILES>
Cc1ccccc1[N+]([O-])=O

> <preferred_name>
2-Nitrotoluene

> <dsstox_substance_id>
DTXSID4025791

> <dsstox_compound_id>
DTXCID005791

> <qc_level>
DSSTox_Low

> <Canonical_QSARr>
CC1=CC=CC=C1[N+]([O-])=O

> <InChI_Code_QSARr>
InChI=1S/C7H7NO2/c1-6-4-2-3-5-7(6)8(9)10/h2-5H,1H3

> <InChI Key_QSARr>
PLAZTCDQAHEYBI-UHFFFAOYSA-N

> <Salt_Solvent>


> <Salt_Solvent_ID>
0

> <MPID>
100233

> <Tr_1_Tst_0>
1

> <Ready_Biodeg>
0.0

$$$$
Row216
  Mrv171c012251911052D          

 10 10  0  0  0  0            999 V2000
    0.1981   -1.1198    0.0000 Cl  0  0  0  0  0  0  0  0  0  0  0  0
    0.9126   -1.5323    0.0000 C   0  0  0  0  0  0  0  0  0  0  0  0
    0.9126   -2.3573    0.0000 C   0  0  0  0  0  0  0  0  0  0  0  0
    1.6271   -2.7698    0.0000 C   0  0  0  0  0  0  0  0  0  0  0  0
    2.3415   -2.3573    0.0000 C   0  0  0  0  0  0  0  0  0  0  0  0
    2.3415   -1.5323    0.0000 C   0  0  0  0  0  0  0  0  0  0  0  0
    1.6271   -1.1198    0.0000 C   0  0  0  0  0  0  0  0  0  0  0  0
    1.6271   -0.2948    0.0000 N   0  3  0  0  0  0  0  0  0  0  0  0
    0.9126    0.1177    0.0000 O   0  5  0  0  0  0  0  0  0  0  0  0
    2.3415    0.1177    0.0000 O   0  0  0  0  0  0  0  0  0  0  0  0
  1  2  1  0  0  0  0
  3  2  1  0  0  0  0
  4  3  2  0  0  0  0
  5  4  1  0  0  0  0
  6  5  2  0  0  0  0
  7  6  1  0  0  0  0
  2  7  2  0  0  0  0
  7  8  1  0  0  0  0
  8  9  1  0  0  0  0
  8 10  2  0  0  0  0
M  CHG  2   8   1   9  -1
M  END
> <ChemID>
100224

> <CAS>
88-73-3

> <Original_SMILES>
[O-][N+](=O)c1ccccc1Cl

> <preferred_name>
1-Chloro-2-nitrobenzene

> <dsstox_substance_id>
DTXSID0020280

> <dsstox_compound_id>
DTXCID80280

> <qc_level>
DSSTox_Low

> <Canonical_QSARr>
[O-][N+](=O)C1C=CC=CC=1Cl

> <InChI_Code_QSARr>
InChI=1S/C6H4ClNO2/c7-5-3-1-2-4-6(5)8(9)10/h1-4H

> <InChI Key_QSARr>
BFCFYVKQTRLZHA-UHFFFAOYSA-N

> <Salt_Solvent>


> <Salt_Solvent_ID>
0

> <MPID>
100234

> <Tr_1_Tst_0>
0

> <Ready_Biodeg>
0.0

$$$$
Row217
  Mrv171c012251911052D          

 10 10  0  0  0  0            999 V2000
    2.4130   -0.9135    0.0000 N   0  3  0  0  0  0  0  0  0  0  0  0
    1.6985   -1.3260    0.0000 C   0  0  0  0  0  0  0  0  0  0  0  0
    0.9840   -0.9135    0.0000 C   0  0  0  0  0  0  0  0  0  0  0  0
    0.9840   -0.0885    0.0000 N   0  0  0  0  0  0  0  0  0  0  0  0
    0.2696   -1.3260    0.0000 C   0  0  0  0  0  0  0  0  0  0  0  0
    0.2696   -2.1510    0.0000 C   0  0  0  0  0  0  0  0  0  0  0  0
    0.9840   -2.5635    0.0000 C   0  0  0  0  0  0  0  0  0  0  0  0
    1.6985   -2.1510    0.0000 C   0  0  0  0  0  0  0  0  0  0  0  0
    2.4130   -0.0885    0.0000 O   0  5  0  0  0  0  0  0  0  0  0  0
    3.1275   -1.3260    0.0000 O   0  0  0  0  0  0  0  0  0  0  0  0
  1  2  1  0  0  0  0
  3  2  1  0  0  0  0
  3  4  1  0  0  0  0
  5  3  2  0  0  0  0
  6  5  1  0  0  0  0
  7  6  2  0  0  0  0
  8  7  1  0  0  0  0
  2  8  2  0  0  0  0
  1  9  1  0  0  0  0
  1 10  2  0  0  0  0
M  CHG  2   1   1   9  -1
M  END
> <ChemID>
100225

> <CAS>
88-74-4

> <Original_SMILES>
Nc1ccccc1[N+]([O-])=O

> <preferred_name>
2-Nitroaniline

> <dsstox_substance_id>
DTXSID1025726

> <dsstox_compound_id>
DTXCID905726

> <qc_level>
DSSTox_Low

> <Canonical_QSARr>
NC1=CC=CC=C1[N+]([O-])=O

> <InChI_Code_QSARr>
InChI=1S/C6H6N2O2/c7-5-3-1-2-4-6(5)8(9)10/h1-4H,7H2

> <InChI Key_QSARr>
DPJCXCZTLWNFOH-UHFFFAOYSA-N

> <Salt_Solvent>


> <Salt_Solvent_ID>
0

> <MPID>
100235

> <Tr_1_Tst_0>
1

> <Ready_Biodeg>
0.0

$$$$
Row218
  Mrv171c012251911052D          

 10 10  0  0  0  0            999 V2000
    0.1981   -1.1198    0.0000 O   0  0  0  0  0  0  0  0  0  0  0  0
    0.9126   -1.5323    0.0000 C   0  0  0  0  0  0  0  0  0  0  0  0
    0.9126   -2.3573    0.0000 C   0  0  0  0  0  0  0  0  0  0  0  0
    1.6271   -2.7698    0.0000 C   0  0  0  0  0  0  0  0  0  0  0  0
    2.3415   -2.3573    0.0000 C   0  0  0  0  0  0  0  0  0  0  0  0
    2.3415   -1.5323    0.0000 C   0  0  0  0  0  0  0  0  0  0  0  0
    1.6271   -1.1198    0.0000 C   0  0  0  0  0  0  0  0  0  0  0  0
    1.6271   -0.2948    0.0000 N   0  3  0  0  0  0  0  0  0  0  0  0
    0.9126    0.1177    0.0000 O   0  0  0  0  0  0  0  0  0  0  0  0
    2.3415    0.1177    0.0000 O   0  5  0  0  0  0  0  0  0  0  0  0
  1  2  1  0  0  0  0
  3  2  1  0  0  0  0
  4  3  2  0  0  0  0
  5  4  1  0  0  0  0
  6  5  2  0  0  0  0
  7  6  1  0  0  0  0
  2  7  2  0  0  0  0
  7  8  1  0  0  0  0
  8  9  2  0  0  0  0
  8 10  1  0  0  0  0
M  CHG  2   8   1  10  -1
M  END
> <ChemID>
100226

> <CAS>
88-75-5

> <Original_SMILES>
[O-][N+](=O)c1ccccc1O

> <preferred_name>
2-Nitrophenol

> <dsstox_substance_id>
DTXSID1021790

> <dsstox_compound_id>
DTXCID201790

> <qc_level>
DSSTox_Low

> <Canonical_QSARr>
[O-][N+](=O)C1C=CC=CC=1O

> <InChI_Code_QSARr>
InChI=1S/C6H5NO3/c8-6-4-2-1-3-5(6)7(9)10/h1-4,8H

> <InChI Key_QSARr>
IQUPABOKLQSFBK-UHFFFAOYSA-N

> <Salt_Solvent>


> <Salt_Solvent_ID>
0

> <MPID>
100236

> <Tr_1_Tst_0>
1

> <Ready_Biodeg>
0.0

$$$$
Row219
  Mrv171c012251911052D          

 17 17  0  0  0  0            999 V2000
    3.5763   -1.5265    0.0000 O   0  0  0  0  0  0  0  0  0  0  0  0
    2.8618   -1.9390    0.0000 C   0  0  0  0  0  0  0  0  0  0  0  0
    2.1474   -1.5265    0.0000 C   0  0  0  0  0  0  0  0  0  0  0  0
    2.1474   -0.7015    0.0000 C   0  0  0  0  0  0  0  0  0  0  0  0
    1.4329   -0.2890    0.0000 C   0  0  0  0  0  0  0  0  0  0  0  0
    2.8618   -0.2890    0.0000 C   0  0  0  0  0  0  0  0  0  0  0  0
    2.8618    0.5360    0.0000 C   0  0  0  0  0  0  0  0  0  0  0  0
    1.4329   -1.9390    0.0000 C   0  0  0  0  0  0  0  0  0  0  0  0
    1.4329   -2.7640    0.0000 C   0  0  0  0  0  0  0  0  0  0  0  0
    0.7184   -3.1765    0.0000 N   0  3  0  0  0  0  0  0  0  0  0  0
    0.7184   -4.0015    0.0000 O   0  5  0  0  0  0  0  0  0  0  0  0
    0.0040   -2.7640    0.0000 O   0  0  0  0  0  0  0  0  0  0  0  0
    2.1474   -3.1765    0.0000 C   0  0  0  0  0  0  0  0  0  0  0  0
    2.8618   -2.7640    0.0000 C   0  0  0  0  0  0  0  0  0  0  0  0
    3.5763   -3.1765    0.0000 N   0  3  0  0  0  0  0  0  0  0  0  0
    4.2908   -2.7640    0.0000 O   0  5  0  0  0  0  0  0  0  0  0  0
    3.5763   -4.0015    0.0000 O   0  0  0  0  0  0  0  0  0  0  0  0
  1  2  1  0  0  0  0
  3  2  1  0  0  0  0
  3  4  1  0  0  0  0
  4  5  1  0  0  0  0
  4  6  1  0  0  0  0
  6  7  1  0  0  0  0
  8  3  2  0  0  0  0
  9  8  1  0  0  0  0
  9 10  1  0  0  0  0
 10 11  1  0  0  0  0
 10 12  2  0  0  0  0
 13  9  2  0  0  0  0
 14 13  1  0  0  0  0
  2 14  2  0  0  0  0
 14 15  1  0  0  0  0
 15 16  1  0  0  0  0
 15 17  2  0  0  0  0
M  CHG  4  10   1  11  -1  15   1  16  -1
M  END
> <ChemID>
100227

> <CAS>
88-85-7

> <Original_SMILES>
CCC(C)c1cc(cc(c1O)[N+]([O-])=O)[N+]([O-])=O

> <preferred_name>
Dinoseb

> <dsstox_substance_id>
DTXSID3020207

> <dsstox_compound_id>
DTXCID30207

> <qc_level>
DSSTox_High

> <Canonical_QSARr>
CCC(C)C1=CC(=CC(=C1O)[N+]([O-])=O)[N+]([O-])=O

> <InChI_Code_QSARr>
InChI=1S/C10H12N2O5/c1-3-6(2)8-4-7(11(14)15)5-9(10(8)13)12(16)17/h4-6,13H,3H2,1-2H3

> <InChI Key_QSARr>
OWZPCEFYPSAJFR-UHFFFAOYSA-N

> <Salt_Solvent>


> <Salt_Solvent_ID>
0

> <MPID>
100237

> <Tr_1_Tst_0>
1

> <Ready_Biodeg>
0.0

$$$$
Row220
  Mrv171c012251911052D          

 12 12  0  0  0  0            999 V2000
    3.2727   -2.0361    0.0000 O   0  0  0  0  0  0  0  0  0  0  0  0
    2.5582   -1.6236    0.0000 C   0  0  0  0  0  0  0  0  0  0  0  0
    2.5582   -0.7986    0.0000 O   0  0  0  0  0  0  0  0  0  0  0  0
    1.8438   -2.0361    0.0000 C   0  0  0  0  0  0  0  0  0  0  0  0
    1.1293   -1.6236    0.0000 C   0  0  0  0  0  0  0  0  0  0  0  0
    1.1293   -0.7986    0.0000 C   0  0  0  0  0  0  0  0  0  0  0  0
    0.4148   -0.3861    0.0000 O   0  0  0  0  0  0  0  0  0  0  0  0
    1.8438   -0.3861    0.0000 O   0  0  0  0  0  0  0  0  0  0  0  0
    0.4148   -2.0361    0.0000 C   0  0  0  0  0  0  0  0  0  0  0  0
    0.4148   -2.8611    0.0000 C   0  0  0  0  0  0  0  0  0  0  0  0
    1.1293   -3.2736    0.0000 C   0  0  0  0  0  0  0  0  0  0  0  0
    1.8438   -2.8611    0.0000 C   0  0  0  0  0  0  0  0  0  0  0  0
  1  2  1  0  0  0  0
  2  3  2  0  0  0  0
  2  4  1  0  0  0  0
  5  4  1  0  0  0  0
  5  6  1  0  0  0  0
  6  7  2  0  0  0  0
  6  8  1  0  0  0  0
  9  5  2  0  0  0  0
 10  9  1  0  0  0  0
 11 10  2  0  0  0  0
 12 11  1  0  0  0  0
  4 12  2  0  0  0  0
M  END
> <ChemID>
100228

> <CAS>
88-99-3

> <Original_SMILES>
OC(=O)c1ccccc1C(O)=O

> <preferred_name>
Phthalic acid

> <dsstox_substance_id>
DTXSID8021484

> <dsstox_compound_id>
DTXCID901484

> <qc_level>
DSSTox_Low

> <Canonical_QSARr>
OC(=O)C1=CC=CC=C1C(O)=O

> <InChI_Code_QSARr>
InChI=1S/C8H6O4/c9-7(10)5-3-1-2-4-6(5)8(11)12/h1-4H,(H,9,10)(H,11,12)

> <InChI Key_QSARr>
XNGIFLGASWRNHJ-UHFFFAOYSA-N

> <Salt_Solvent>


> <Salt_Solvent_ID>
0

> <MPID>
100238

> <Tr_1_Tst_0>
0

> <Ready_Biodeg>
1.0

$$$$
Row221
  Mrv171c012251911052D          

 12 12  0  0  0  0            999 V2000
    2.6806   -1.9561    0.0000 N   0  0  0  0  0  0  0  0  0  0  0  0
    1.9662   -1.5436    0.0000 C   0  0  0  0  0  0  0  0  0  0  0  0
    1.9662   -0.7186    0.0000 C   0  0  0  0  0  0  0  0  0  0  0  0
    2.6806   -0.3061    0.0000 O   0  0  0  0  0  0  0  0  0  0  0  0
    1.2517   -0.3061    0.0000 O   0  0  0  0  0  0  0  0  0  0  0  0
    1.2517   -1.9561    0.0000 C   0  0  0  0  0  0  0  0  0  0  0  0
    0.5372   -1.5436    0.0000 C   0  0  0  0  0  0  0  0  0  0  0  0
   -0.1773   -1.9561    0.0000 O   0  0  0  0  0  0  0  0  0  0  0  0
    0.5372   -0.7186    0.0000 O   0  0  0  0  0  0  0  0  0  0  0  0
    1.2517   -2.7811    0.0000 C   0  0  0  0  0  0  0  0  0  0  0  0
    1.9662   -3.1936    0.0000 C   0  0  0  0  0  0  0  0  0  0  0  0
    2.6806   -2.7811    0.0000 C   0  0  0  0  0  0  0  0  0  0  0  0
  2  1  1  0  0  0  0
  2  3  1  0  0  0  0
  3  4  1  0  0  0  0
  3  5  2  0  0  0  0
  6  2  2  0  0  0  0
  6  7  1  0  0  0  0
  7  8  2  0  0  0  0
  7  9  1  0  0  0  0
 10  6  1  0  0  0  0
 11 10  2  0  0  0  0
 12 11  1  0  0  0  0
  1 12  2  0  0  0  0
M  END
> <ChemID>
100229

> <CAS>
89-00-9

> <Original_SMILES>
OC(=O)c1[n]cccc1C(O)=O

> <preferred_name>
2,3-Pyridinedicarboxylic acid

> <dsstox_substance_id>
DTXSID8041327

> <dsstox_compound_id>
DTXCID6021327

> <qc_level>
DSSTox_Low

> <Canonical_QSARr>
OC(=O)C1C=CC=NC=1C(O)=O

> <InChI_Code_QSARr>
InChI=1S/C7H5NO4/c9-6(10)4-2-1-3-8-5(4)7(11)12/h1-3H,(H,9,10)(H,11,12)

> <InChI Key_QSARr>
GJAWHXHKYYXBSV-UHFFFAOYSA-N

> <Salt_Solvent>


> <Salt_Solvent_ID>
0

> <MPID>
100239

> <Tr_1_Tst_0>
1

> <Ready_Biodeg>
1.0

$$$$
Row222
  Mrv171c012251911052D          

 11 11  0  0  0  0            999 V2000
    2.1433   -2.7804    0.0000 N   0  0  0  0  0  0  0  0  0  0  0  0
    2.1433   -1.9554    0.0000 C   0  0  0  0  0  0  0  0  0  0  0  0
    2.8578   -1.5429    0.0000 C   0  0  0  0  0  0  0  0  0  0  0  0
    2.8578   -0.7179    0.0000 C   0  0  0  0  0  0  0  0  0  0  0  0
    2.1433   -0.3054    0.0000 C   0  0  0  0  0  0  0  0  0  0  0  0
    2.1433    0.5196    0.0000 Cl  0  0  0  0  0  0  0  0  0  0  0  0
    1.4289   -0.7179    0.0000 C   0  0  0  0  0  0  0  0  0  0  0  0
    1.4289   -1.5429    0.0000 C   0  0  0  0  0  0  0  0  0  0  0  0
    0.7144   -1.9554    0.0000 N   0  3  0  0  0  0  0  0  0  0  0  0
    0.7144   -2.7804    0.0000 O   0  0  0  0  0  0  0  0  0  0  0  0
   -0.0001   -1.5429    0.0000 O   0  5  0  0  0  0  0  0  0  0  0  0
  1  2  1  0  0  0  0
  3  2  1  0  0  0  0
  4  3  2  0  0  0  0
  5  4  1  0  0  0  0
  5  6  1  0  0  0  0
  7  5  2  0  0  0  0
  8  7  1  0  0  0  0
  2  8  2  0  0  0  0
  8  9  1  0  0  0  0
  9 10  2  0  0  0  0
  9 11  1  0  0  0  0
M  CHG  2   9   1  11  -1
M  END
> <ChemID>
100230

> <CAS>
89-63-4

> <Original_SMILES>
Nc1ccc(Cl)cc1[N+]([O-])=O

> <preferred_name>
4-Chloro-2-nitroaniline

> <dsstox_substance_id>
DTXSID4030384

> <dsstox_compound_id>
DTXCID2010384

> <qc_level>
DSSTox_Low

> <Canonical_QSARr>
NC1C=CC(Cl)=CC=1[N+]([O-])=O

> <InChI_Code_QSARr>
InChI=1S/C6H5ClN2O2/c7-4-1-2-5(8)6(3-4)9(10)11/h1-3H,8H2

> <InChI Key_QSARr>
PBGKNXWGYQPUJK-UHFFFAOYSA-N

> <Salt_Solvent>


> <Salt_Solvent_ID>
0

> <MPID>
100240

> <Tr_1_Tst_0>
1

> <Ready_Biodeg>
0.0

$$$$
Row223
  Mrv171c012251911052D          

  9  9  0  0  0  0            999 V2000
    2.3062   -0.3718    0.0000 C   0  0  0  0  0  0  0  0  0  0  0  0
    3.0206   -0.7843    0.0000 O   0  0  0  0  0  0  0  0  0  0  0  0
    1.5917   -0.7843    0.0000 C   0  0  0  0  0  0  0  0  0  0  0  0
    0.8772   -0.3718    0.0000 C   0  0  0  0  0  0  0  0  0  0  0  0
    0.8772    0.4532    0.0000 O   0  0  0  0  0  0  0  0  0  0  0  0
    0.1628   -0.7843    0.0000 C   0  0  0  0  0  0  0  0  0  0  0  0
    0.1628   -1.6093    0.0000 C   0  0  0  0  0  0  0  0  0  0  0  0
    0.8772   -2.0218    0.0000 C   0  0  0  0  0  0  0  0  0  0  0  0
    1.5917   -1.6093    0.0000 C   0  0  0  0  0  0  0  0  0  0  0  0
  1  2  1  0  0  0  0
  1  3  1  0  0  0  0
  4  3  1  0  0  0  0
  4  5  1  0  0  0  0
  6  4  2  0  0  0  0
  7  6  1  0  0  0  0
  8  7  2  0  0  0  0
  9  8  1  0  0  0  0
  3  9  2  0  0  0  0
M  END
> <ChemID>
100231

> <CAS>
90-01-7

> <Original_SMILES>
Oc1ccccc1CO

> <preferred_name>
Salicyl alcohol

> <dsstox_substance_id>
DTXSID9045843

> <dsstox_compound_id>
DTXCID7025843

> <qc_level>
DSSTox_Low

> <Canonical_QSARr>
OC1=CC=CC=C1CO

> <InChI_Code_QSARr>
InChI=1S/C7H8O2/c8-5-6-3-1-2-4-7(6)9/h1-4,8-9H,5H2

> <InChI Key_QSARr>
CQRYARSYNCAZFO-UHFFFAOYSA-N

> <Salt_Solvent>


> <Salt_Solvent_ID>
0

> <MPID>
100241

> <Tr_1_Tst_0>
1

> <Ready_Biodeg>
0.0

$$$$
Row224
  Mrv171c012251911052D          

  9  9  0  0  0  0            999 V2000
    0.8473   -1.2824    0.0000 C   0  0  0  0  0  0  0  0  0  0  0  0
    0.8473   -2.1074    0.0000 C   0  0  0  0  0  0  0  0  0  0  0  0
    1.5618   -2.5199    0.0000 C   0  0  0  0  0  0  0  0  0  0  0  0
    2.2763   -2.1074    0.0000 C   0  0  0  0  0  0  0  0  0  0  0  0
    2.2763   -1.2824    0.0000 C   0  0  0  0  0  0  0  0  0  0  0  0
    1.5618   -0.8699    0.0000 C   0  0  0  0  0  0  0  0  0  0  0  0
    1.5618   -0.0449    0.0000 O   0  0  0  0  0  0  0  0  0  0  0  0
    0.8473    0.3676    0.0000 C   0  0  0  0  0  0  0  0  0  0  0  0
    0.1329   -0.8699    0.0000 N   0  0  0  0  0  0  0  0  0  0  0  0
  2  1  2  0  0  0  0
  3  2  1  0  0  0  0
  4  3  2  0  0  0  0
  5  4  1  0  0  0  0
  6  5  2  0  0  0  0
  1  6  1  0  0  0  0
  6  7  1  0  0  0  0
  7  8  1  0  0  0  0
  1  9  1  0  0  0  0
M  END
> <ChemID>
100232

> <CAS>
90-04-0

> <Original_SMILES>
COc1ccccc1N

> <preferred_name>
2-Anisidine

> <dsstox_substance_id>
DTXSID5023877

> <dsstox_compound_id>
DTXCID803877

> <qc_level>
DSSTox_Low

> <Canonical_QSARr>
COC1=CC=CC=C1N

> <InChI_Code_QSARr>
InChI=1S/C7H9NO/c1-9-7-5-3-2-4-6(7)8/h2-5H,8H2,1H3

> <InChI Key_QSARr>
VMPITZXILSNTON-UHFFFAOYSA-N

> <Salt_Solvent>


> <Salt_Solvent_ID>
0

> <MPID>
100242

> <Tr_1_Tst_0>
0

> <Ready_Biodeg>
1.0

$$$$
Row225
  Mrv171c012251911052D          

  9  9  0  0  0  0            999 V2000
    2.6694   -1.2571    0.0000 C   0  0  0  0  0  0  0  0  0  0  0  0
    1.9549   -0.8446    0.0000 C   0  0  0  0  0  0  0  0  0  0  0  0
    1.9549   -0.0196    0.0000 O   0  0  0  0  0  0  0  0  0  0  0  0
    1.2404   -1.2571    0.0000 C   0  0  0  0  0  0  0  0  0  0  0  0
    0.5260   -0.8446    0.0000 O   0  0  0  0  0  0  0  0  0  0  0  0
   -0.1885   -1.2571    0.0000 C   0  0  0  0  0  0  0  0  0  0  0  0
    1.2404   -2.0821    0.0000 C   0  0  0  0  0  0  0  0  0  0  0  0
    1.9549   -2.4946    0.0000 C   0  0  0  0  0  0  0  0  0  0  0  0
    2.6694   -2.0821    0.0000 C   0  0  0  0  0  0  0  0  0  0  0  0
  2  1  1  0  0  0  0
  2  3  1  0  0  0  0
  4  2  2  0  0  0  0
  4  5  1  0  0  0  0
  5  6  1  0  0  0  0
  7  4  1  0  0  0  0
  8  7  2  0  0  0  0
  9  8  1  0  0  0  0
  1  9  2  0  0  0  0
M  END
> <ChemID>
100233

> <CAS>
90-05-1

> <Original_SMILES>
COc1ccccc1O

> <preferred_name>
2-Methoxyphenol

> <dsstox_substance_id>
DTXSID0023113

> <dsstox_compound_id>
DTXCID003113

> <qc_level>
DSSTox_Low

> <Canonical_QSARr>
COC1C=CC=CC=1O

> <InChI_Code_QSARr>
InChI=1S/C7H8O2/c1-9-7-5-3-2-4-6(7)8/h2-5,8H,1H3

> <InChI Key_QSARr>
LHGVFZTZFXWLCP-UHFFFAOYSA-N

> <Salt_Solvent>


> <Salt_Solvent_ID>
0

> <MPID>
100243

> <Tr_1_Tst_0>
1

> <Ready_Biodeg>
1.0

$$$$
Row226
  Mrv171c012251911052D          

 11 12  0  0  0  0            999 V2000
    0.5846   -0.1125    0.0000 C   0  0  0  0  0  0  0  0  0  0  0  0
   -0.1299    0.3000    0.0000 C   0  0  0  0  0  0  0  0  0  0  0  0
   -0.8444   -0.1125    0.0000 C   0  0  0  0  0  0  0  0  0  0  0  0
   -0.8444   -0.9375    0.0000 C   0  0  0  0  0  0  0  0  0  0  0  0
   -0.1299   -1.3500    0.0000 C   0  0  0  0  0  0  0  0  0  0  0  0
    0.5846   -0.9375    0.0000 C   0  0  0  0  0  0  0  0  0  0  0  0
    1.2990   -1.3500    0.0000 C   0  0  0  0  0  0  0  0  0  0  0  0
    1.2990   -2.1750    0.0000 I   0  0  0  0  0  0  0  0  0  0  0  0
    2.0135   -0.9375    0.0000 C   0  0  0  0  0  0  0  0  0  0  0  0
    2.0135   -0.1125    0.0000 C   0  0  0  0  0  0  0  0  0  0  0  0
    1.2990    0.3000    0.0000 C   0  0  0  0  0  0  0  0  0  0  0  0
  2  1  1  0  0  0  0
  3  2  2  0  0  0  0
  4  3  1  0  0  0  0
  5  4  2  0  0  0  0
  6  5  1  0  0  0  0
  6  1  1  0  0  0  0
  7  6  2  0  0  0  0
  7  8  1  0  0  0  0
  9  7  1  0  0  0  0
 10  9  2  0  0  0  0
 11 10  1  0  0  0  0
  1 11  2  0  0  0  0
M  END
> <ChemID>
100234

> <CAS>
90-14-2

> <Original_SMILES>
Ic1cccc2ccccc21

> <preferred_name>
Naphthalene, 1-iodo-

> <dsstox_substance_id>
DTXSID3059004

> <dsstox_compound_id>
DTXCID0048686

> <qc_level>
Public_High

> <Canonical_QSARr>
IC1C=CC=C2C=CC=CC2=1

> <InChI_Code_QSARr>
InChI=1S/C10H7I/c11-10-7-3-5-8-4-1-2-6-9(8)10/h1-7H

> <InChI Key_QSARr>
NHPPIJMARIVBGU-UHFFFAOYSA-N

> <Salt_Solvent>


> <Salt_Solvent_ID>
0

> <MPID>
100244

> <Tr_1_Tst_0>
1

> <Ready_Biodeg>
1.0

$$$$
Row227
  Mrv171c012251911052D          

 11 12  0  0  0  0            999 V2000
    0.8453   -0.0013    0.0000 O   0  0  0  0  0  0  0  0  0  0  0  0
    0.8453   -0.8263    0.0000 C   0  0  0  0  0  0  0  0  0  0  0  0
    1.5597   -1.2388    0.0000 C   0  0  0  0  0  0  0  0  0  0  0  0
    2.2742   -0.8263    0.0000 C   0  0  0  0  0  0  0  0  0  0  0  0
    2.9887   -1.2388    0.0000 C   0  0  0  0  0  0  0  0  0  0  0  0
    2.9887   -2.0638    0.0000 C   0  0  0  0  0  0  0  0  0  0  0  0
    2.2742   -2.4763    0.0000 C   0  0  0  0  0  0  0  0  0  0  0  0
    1.5597   -2.0638    0.0000 C   0  0  0  0  0  0  0  0  0  0  0  0
    0.8453   -2.4763    0.0000 C   0  0  0  0  0  0  0  0  0  0  0  0
    0.1308   -2.0638    0.0000 C   0  0  0  0  0  0  0  0  0  0  0  0
    0.1308   -1.2388    0.0000 C   0  0  0  0  0  0  0  0  0  0  0  0
  1  2  1  0  0  0  0
  3  2  1  0  0  0  0
  3  4  2  0  0  0  0
  4  5  1  0  0  0  0
  5  6  2  0  0  0  0
  6  7  1  0  0  0  0
  7  8  2  0  0  0  0
  8  3  1  0  0  0  0
  9  8  1  0  0  0  0
 10  9  2  0  0  0  0
 11 10  1  0  0  0  0
  2 11  2  0  0  0  0
M  END
> <ChemID>
100235

> <CAS>
90-15-3

> <Original_SMILES>
Oc1cccc2ccccc21

> <preferred_name>
1-Naphthol

> <dsstox_substance_id>
DTXSID6021793

> <dsstox_compound_id>
DTXCID401793

> <qc_level>
DSSTox_Low

> <Canonical_QSARr>
OC1=CC=CC2=CC=CC=C21

> <InChI_Code_QSARr>
InChI=1S/C10H8O/c11-10-7-3-5-8-4-1-2-6-9(8)10/h1-7,11H

> <InChI Key_QSARr>
KJCVRFUGPWSIIH-UHFFFAOYSA-N

> <Salt_Solvent>


> <Salt_Solvent_ID>
0

> <MPID>
100245

> <Tr_1_Tst_0>
1

> <Ready_Biodeg>
1.0

$$$$
Row228
  Mrv171c012251911052D          

 17 19  0  0  0  0            999 V2000
    2.8232   -2.1921    0.0000 N   0  0  0  0  0  0  0  0  0  0  0  0
    2.1087   -2.6046    0.0000 C   0  0  0  0  0  0  0  0  0  0  0  0
    1.3943   -2.1921    0.0000 C   0  0  0  0  0  0  0  0  0  0  0  0
    0.6798   -2.6046    0.0000 C   0  0  0  0  0  0  0  0  0  0  0  0
    0.6798   -3.4296    0.0000 C   0  0  0  0  0  0  0  0  0  0  0  0
    1.3943   -3.8421    0.0000 C   0  0  0  0  0  0  0  0  0  0  0  0
    2.1087   -3.4296    0.0000 C   0  0  0  0  0  0  0  0  0  0  0  0
    2.8232   -1.3671    0.0000 C   0  0  0  0  0  0  0  0  0  0  0  0
    2.1087   -0.9546    0.0000 C   0  0  0  0  0  0  0  0  0  0  0  0
    2.1087   -0.1296    0.0000 C   0  0  0  0  0  0  0  0  0  0  0  0
    2.8232    0.2829    0.0000 C   0  0  0  0  0  0  0  0  0  0  0  0
    3.5377   -0.1296    0.0000 C   0  0  0  0  0  0  0  0  0  0  0  0
    4.2522    0.2829    0.0000 C   0  0  0  0  0  0  0  0  0  0  0  0
    4.9666   -0.1296    0.0000 C   0  0  0  0  0  0  0  0  0  0  0  0
    4.9666   -0.9546    0.0000 C   0  0  0  0  0  0  0  0  0  0  0  0
    4.2522   -1.3671    0.0000 C   0  0  0  0  0  0  0  0  0  0  0  0
    3.5377   -0.9546    0.0000 C   0  0  0  0  0  0  0  0  0  0  0  0
  1  2  1  0  0  0  0
  3  2  1  0  0  0  0
  4  3  2  0  0  0  0
  5  4  1  0  0  0  0
  6  5  2  0  0  0  0
  7  6  1  0  0  0  0
  2  7  2  0  0  0  0
  1  8  1  0  0  0  0
  9  8  1  0  0  0  0
 10  9  2  0  0  0  0
 11 10  1  0  0  0  0
 12 11  2  0  0  0  0
 12 13  1  0  0  0  0
 13 14  2  0  0  0  0
 14 15  1  0  0  0  0
 15 16  2  0  0  0  0
 16 17  1  0  0  0  0
  8 17  2  0  0  0  0
 17 12  1  0  0  0  0
M  END
> <ChemID>
100236

> <CAS>
90-30-2

> <Original_SMILES>
c1cccc2c(cccc21)Nc1ccccc1

> <preferred_name>
N-Phenyl-1-naphthylamine

> <dsstox_substance_id>
DTXSID2025892

> <dsstox_compound_id>
DTXCID605892

> <qc_level>
DSSTox_Low

> <Canonical_QSARr>
C1=CC=C2C=CC=CC2=C1NC1C=CC=CC=1

> <InChI_Code_QSARr>
InChI=1S/C16H13N/c1-2-9-14(10-3-1)17-16-12-6-8-13-7-4-5-11-15(13)16/h1-12,17H

> <InChI Key_QSARr>
XQVWYOYUZDUNRW-UHFFFAOYSA-N

> <Salt_Solvent>


> <Salt_Solvent_ID>
0

> <MPID>
100246

> <Tr_1_Tst_0>
0

> <Ready_Biodeg>
0.0

$$$$
Row229
  Mrv171c012251911052D          

 13 14  0  0  0  0            999 V2000
    2.3045   -1.1129    0.0000 C   0  0  0  0  0  0  0  0  0  0  0  0
    2.3045   -1.9379    0.0000 C   0  0  0  0  0  0  0  0  0  0  0  0
    3.0190   -2.3504    0.0000 C   0  0  0  0  0  0  0  0  0  0  0  0
    3.7334   -1.9379    0.0000 C   0  0  0  0  0  0  0  0  0  0  0  0
    3.7334   -1.1129    0.0000 C   0  0  0  0  0  0  0  0  0  0  0  0
    3.0190   -0.7004    0.0000 C   0  0  0  0  0  0  0  0  0  0  0  0
    3.0190    0.1246    0.0000 N   0  0  0  0  0  0  0  0  0  0  0  0
    1.5900   -0.7004    0.0000 C   0  0  0  0  0  0  0  0  0  0  0  0
    1.5900    0.1246    0.0000 C   0  0  0  0  0  0  0  0  0  0  0  0
    0.8756    0.5371    0.0000 C   0  0  0  0  0  0  0  0  0  0  0  0
    0.1611    0.1246    0.0000 C   0  0  0  0  0  0  0  0  0  0  0  0
    0.1611   -0.7004    0.0000 C   0  0  0  0  0  0  0  0  0  0  0  0
    0.8756   -1.1129    0.0000 C   0  0  0  0  0  0  0  0  0  0  0  0
  2  1  1  0  0  0  0
  3  2  2  0  0  0  0
  4  3  1  0  0  0  0
  5  4  2  0  0  0  0
  6  5  1  0  0  0  0
  1  6  2  0  0  0  0
  6  7  1  0  0  0  0
  1  8  1  0  0  0  0
  9  8  1  0  0  0  0
 10  9  2  0  0  0  0
 11 10  1  0  0  0  0
 12 11  2  0  0  0  0
 13 12  1  0  0  0  0
  8 13  2  0  0  0  0
M  END
> <ChemID>
100237

> <CAS>
90-41-5

> <Original_SMILES>
Nc1ccccc1-c1ccccc1

> <preferred_name>
2-Biphenylamine

> <dsstox_substance_id>
DTXSID3030189

> <dsstox_compound_id>
DTXCID1010189

> <qc_level>
DSSTox_Low

> <Canonical_QSARr>
NC1C=CC=CC=1C1C=CC=CC=1

> <InChI_Code_QSARr>
InChI=1S/C12H11N/c13-12-9-5-4-8-11(12)10-6-2-1-3-7-10/h1-9H,13H2

> <InChI Key_QSARr>
TWBPWBPGNQWFSJ-UHFFFAOYSA-N

> <Salt_Solvent>


> <Salt_Solvent_ID>
0

> <MPID>
100247

> <Tr_1_Tst_0>
1

> <Ready_Biodeg>
0.0

$$$$
Row230
  Mrv171c012251911052D          

 13 14  0  0  0  0            999 V2000
    0.7134   -1.7031    0.0000 O   0  0  0  0  0  0  0  0  0  0  0  0
    1.4279   -2.1156    0.0000 C   0  0  0  0  0  0  0  0  0  0  0  0
    1.4279   -2.9406    0.0000 C   0  0  0  0  0  0  0  0  0  0  0  0
    2.1424   -3.3531    0.0000 C   0  0  0  0  0  0  0  0  0  0  0  0
    2.8568   -2.9406    0.0000 C   0  0  0  0  0  0  0  0  0  0  0  0
    2.8568   -2.1156    0.0000 C   0  0  0  0  0  0  0  0  0  0  0  0
    2.1424   -1.7031    0.0000 C   0  0  0  0  0  0  0  0  0  0  0  0
    2.1424   -0.8781    0.0000 C   0  0  0  0  0  0  0  0  0  0  0  0
    2.8568   -0.4656    0.0000 C   0  0  0  0  0  0  0  0  0  0  0  0
    2.8568    0.3594    0.0000 C   0  0  0  0  0  0  0  0  0  0  0  0
    2.1424    0.7719    0.0000 C   0  0  0  0  0  0  0  0  0  0  0  0
    1.4279    0.3594    0.0000 C   0  0  0  0  0  0  0  0  0  0  0  0
    1.4279   -0.4656    0.0000 C   0  0  0  0  0  0  0  0  0  0  0  0
  1  2  1  0  0  0  0
  3  2  1  0  0  0  0
  4  3  2  0  0  0  0
  5  4  1  0  0  0  0
  6  5  2  0  0  0  0
  7  6  1  0  0  0  0
  2  7  2  0  0  0  0
  7  8  1  0  0  0  0
  9  8  1  0  0  0  0
 10  9  2  0  0  0  0
 11 10  1  0  0  0  0
 12 11  2  0  0  0  0
 13 12  1  0  0  0  0
  8 13  2  0  0  0  0
M  END
> <ChemID>
100238

> <CAS>
90-43-7

> <Original_SMILES>
Oc1ccccc1-c1ccccc1

> <preferred_name>
2-Phenylphenol

> <dsstox_substance_id>
DTXSID2021151

> <dsstox_compound_id>
DTXCID201151

> <qc_level>
DSSTox_Low

> <Canonical_QSARr>
OC1C=CC=CC=1C1C=CC=CC=1

> <InChI_Code_QSARr>
InChI=1S/C12H10O/c13-12-9-5-4-8-11(12)10-6-2-1-3-7-10/h1-9,13H

> <InChI Key_QSARr>
LLEMOWNGBBNAJR-UHFFFAOYSA-N

> <Salt_Solvent>


> <Salt_Solvent_ID>
0

> <MPID>
100248

> <Tr_1_Tst_0>
1

> <Ready_Biodeg>
1.0

$$$$
Row231
  Mrv171c012251911052D          

 16 17  0  0  0  0            999 V2000
    3.1029   -1.1136    0.0000 C   0  0  0  0  0  0  0  0  0  0  0  0
    2.3884   -0.7011    0.0000 C   0  0  0  0  0  0  0  0  0  0  0  0
    1.6739   -1.1136    0.0000 C   0  0  0  0  0  0  0  0  0  0  0  0
    0.9595   -0.7011    0.0000 S   0  0  0  0  0  0  0  0  0  0  0  0
    0.2450   -0.2886    0.0000 O   0  0  0  0  0  0  0  0  0  0  0  0
    0.5470   -1.4156    0.0000 O   0  0  0  0  0  0  0  0  0  0  0  0
    1.3720    0.0134    0.0000 O   0  0  0  0  0  0  0  0  0  0  0  0
    1.6739   -1.9386    0.0000 C   0  0  0  0  0  0  0  0  0  0  0  0
    2.3884   -2.3511    0.0000 C   0  0  0  0  0  0  0  0  0  0  0  0
    2.3884   -3.1761    0.0000 O   0  0  0  0  0  0  0  0  0  0  0  0
    3.1029   -1.9386    0.0000 C   0  0  0  0  0  0  0  0  0  0  0  0
    3.8174   -2.3511    0.0000 C   0  0  0  0  0  0  0  0  0  0  0  0
    4.5318   -1.9386    0.0000 C   0  0  0  0  0  0  0  0  0  0  0  0
    5.2463   -2.3511    0.0000 N   0  0  0  0  0  0  0  0  0  0  0  0
    4.5318   -1.1136    0.0000 C   0  0  0  0  0  0  0  0  0  0  0  0
    3.8174   -0.7011    0.0000 C   0  0  0  0  0  0  0  0  0  0  0  0
  2  1  1  0  0  0  0
  3  2  2  0  0  0  0
  3  4  1  0  0  0  0
  4  5  2  0  0  0  0
  4  6  1  0  0  0  0
  4  7  2  0  0  0  0
  8  3  1  0  0  0  0
  9  8  2  0  0  0  0
  9 10  1  0  0  0  0
 11  9  1  0  0  0  0
 11  1  2  0  0  0  0
 12 11  1  0  0  0  0
 13 12  2  0  0  0  0
 13 14  1  0  0  0  0
 15 13  1  0  0  0  0
 16 15  2  0  0  0  0
  1 16  1  0  0  0  0
M  END
> <ChemID>
100239

> <CAS>
90-51-7

> <Original_SMILES>
Nc1cc2c(cc1)cc(cc2O)S(O)(=O)=O

> <preferred_name>
6-Amino-4-hydroxynaphthalene-2-sulfonic acid

> <dsstox_substance_id>
DTXSID0026547

> <dsstox_compound_id>
DTXCID606547

> <qc_level>
DSSTox_Low

> <Canonical_QSARr>
NC1=CC2=C(C=C1)C=C(C=C2O)S(O)(=O)=O

> <InChI_Code_QSARr>
InChI=1S/C10H9NO4S/c11-7-2-1-6-3-8(16(13,14)15)5-10(12)9(6)4-7/h1-5,12H,11H2,(H,13,14,15)

> <InChI Key_QSARr>
HBZVNWNSRNTWPS-UHFFFAOYSA-N

> <Salt_Solvent>


> <Salt_Solvent_ID>
0

> <MPID>
100249

> <Tr_1_Tst_0>
1

> <Ready_Biodeg>
0.0

$$$$
Row232
  Mrv171c012251911052D          

 20 21  0  0  0  0            999 V2000
    1.9968   -2.7225    0.0000 O   0  0  0  0  0  0  0  0  0  0  0  0
    2.7112   -2.3100    0.0000 C   0  0  0  0  0  0  0  0  0  0  0  0
    2.7112   -1.4850    0.0000 C   0  0  0  0  0  0  0  0  0  0  0  0
    3.4257   -1.0725    0.0000 C   0  0  0  0  0  0  0  0  0  0  0  0
    3.4257   -0.2475    0.0000 C   0  0  0  0  0  0  0  0  0  0  0  0
    2.7112    0.1650    0.0000 C   0  0  0  0  0  0  0  0  0  0  0  0
    2.7112    0.9900    0.0000 N   0  0  0  0  0  0  0  0  0  0  0  0
    1.9968    1.4025    0.0000 C   0  0  0  0  0  0  0  0  0  0  0  0
    3.4257    1.4025    0.0000 C   0  0  0  0  0  0  0  0  0  0  0  0
    1.9968   -0.2475    0.0000 C   0  0  0  0  0  0  0  0  0  0  0  0
    1.9968   -1.0725    0.0000 C   0  0  0  0  0  0  0  0  0  0  0  0
    3.4257   -2.7225    0.0000 C   0  0  0  0  0  0  0  0  0  0  0  0
    3.4257   -3.5475    0.0000 C   0  0  0  0  0  0  0  0  0  0  0  0
    4.1402   -3.9600    0.0000 C   0  0  0  0  0  0  0  0  0  0  0  0
    4.8547   -3.5475    0.0000 C   0  0  0  0  0  0  0  0  0  0  0  0
    5.5691   -3.9600    0.0000 N   0  0  0  0  0  0  0  0  0  0  0  0
    6.2836   -3.5475    0.0000 C   0  0  0  0  0  0  0  0  0  0  0  0
    5.5691   -4.7850    0.0000 C   0  0  0  0  0  0  0  0  0  0  0  0
    4.8547   -2.7225    0.0000 C   0  0  0  0  0  0  0  0  0  0  0  0
    4.1402   -2.3100    0.0000 C   0  0  0  0  0  0  0  0  0  0  0  0
  1  2  2  0  0  0  0
  2  3  1  0  0  0  0
  4  3  1  0  0  0  0
  5  4  2  0  0  0  0
  6  5  1  0  0  0  0
  6  7  1  0  0  0  0
  7  8  1  0  0  0  0
  7  9  1  0  0  0  0
 10  6  2  0  0  0  0
 11 10  1  0  0  0  0
  3 11  2  0  0  0  0
  2 12  1  0  0  0  0
 13 12  1  0  0  0  0
 14 13  2  0  0  0  0
 15 14  1  0  0  0  0
 15 16  1  0  0  0  0
 16 17  1  0  0  0  0
 16 18  1  0  0  0  0
 19 15  2  0  0  0  0
 20 19  1  0  0  0  0
 12 20  2  0  0  0  0
M  END
> <ChemID>
100240

> <CAS>
90-94-8

> <Original_SMILES>
CN(C)c1ccc(cc1)C(=O)c1ccc(cc1)N(C)C

> <preferred_name>
Michler's ketone

> <dsstox_substance_id>
DTXSID2020894

> <dsstox_compound_id>
DTXCID80894

> <qc_level>
DSSTox_Low

> <Canonical_QSARr>
CN(C)C1C=CC(=CC=1)C(=O)C1C=CC(=CC=1)N(C)C

> <InChI_Code_QSARr>
InChI=1S/C17H20N2O/c1-18(2)15-9-5-13(6-10-15)17(20)14-7-11-16(12-8-14)19(3)4/h5-12H,1-4H3

> <InChI Key_QSARr>
VVBLNCFGVYUYGU-UHFFFAOYSA-N

> <Salt_Solvent>


> <Salt_Solvent_ID>
0

> <MPID>
100250

> <Tr_1_Tst_0>
0

> <Ready_Biodeg>
0.0

$$$$
Row233
  Mrv171c012251911052D          

 14 15  0  0  0  0            999 V2000
    1.8372    1.2375    0.0000 C   0  0  0  0  0  0  0  0  0  0  0  0
    1.1227    0.8250    0.0000 C   0  0  0  0  0  0  0  0  0  0  0  0
    1.1227    0.0000    0.0000 C   0  0  0  0  0  0  0  0  0  0  0  0
    1.8372   -0.4125    0.0000 C   0  0  0  0  0  0  0  0  0  0  0  0
    2.5517    0.0000    0.0000 C   0  0  0  0  0  0  0  0  0  0  0  0
    2.5517    0.8250    0.0000 C   0  0  0  0  0  0  0  0  0  0  0  0
    1.8372    2.0625    0.0000 C   0  0  0  0  0  0  0  0  0  0  0  0
    2.5517    2.4750    0.0000 O   0  0  0  0  0  0  0  0  0  0  0  0
    1.1227    2.4750    0.0000 C   0  0  0  0  0  0  0  0  0  0  0  0
    1.1227    3.3000    0.0000 C   0  0  0  0  0  0  0  0  0  0  0  0
    0.4083    3.7125    0.0000 C   0  0  0  0  0  0  0  0  0  0  0  0
   -0.3062    3.3000    0.0000 C   0  0  0  0  0  0  0  0  0  0  0  0
   -0.3062    2.4750    0.0000 C   0  0  0  0  0  0  0  0  0  0  0  0
    0.4083    2.0625    0.0000 C   0  0  0  0  0  0  0  0  0  0  0  0
  2  1  1  0  0  0  0
  3  2  2  0  0  0  0
  4  3  1  0  0  0  0
  5  4  2  0  0  0  0
  6  5  1  0  0  0  0
  1  6  2  0  0  0  0
  1  7  1  0  0  0  0
  7  8  1  0  0  0  0
  7  9  1  0  0  0  0
 10  9  1  0  0  0  0
 11 10  2  0  0  0  0
 12 11  1  0  0  0  0
 13 12  2  0  0  0  0
 14 13  1  0  0  0  0
  9 14  2  0  0  0  0
M  END
> <ChemID>
100241

> <CAS>
91-01-0

> <Original_SMILES>
OC(c1ccccc1)c1ccccc1

> <preferred_name>
Diphenylmethanol

> <dsstox_substance_id>
DTXSID2059015

> <dsstox_compound_id>
DTXCID6048707

> <qc_level>
Public_High

> <Canonical_QSARr>
OC(C1C=CC=CC=1)C1C=CC=CC=1

> <InChI_Code_QSARr>
InChI=1S/C13H12O/c14-13(11-7-3-1-4-8-11)12-9-5-2-6-10-12/h1-10,13-14H

> <InChI Key_QSARr>
QILSFLSDHQAZET-UHFFFAOYSA-N

> <Salt_Solvent>


> <Salt_Solvent_ID>
0

> <MPID>
100251

> <Tr_1_Tst_0>
1

> <Ready_Biodeg>
1.0

$$$$
Row234
  Mrv171c012251911052D          

 14 15  0  0  0  0            999 V2000
    1.8372    1.2375    0.0000 C   0  0  0  0  0  0  0  0  0  0  0  0
    1.1227    0.8250    0.0000 C   0  0  0  0  0  0  0  0  0  0  0  0
    1.1227    0.0000    0.0000 C   0  0  0  0  0  0  0  0  0  0  0  0
    1.8372   -0.4125    0.0000 C   0  0  0  0  0  0  0  0  0  0  0  0
    2.5517    0.0000    0.0000 C   0  0  0  0  0  0  0  0  0  0  0  0
    2.5517    0.8250    0.0000 C   0  0  0  0  0  0  0  0  0  0  0  0
    1.8372    2.0625    0.0000 C   0  0  0  0  0  0  0  0  0  0  0  0
    2.5517    2.4750    0.0000 O   0  0  0  0  0  0  0  0  0  0  0  0
    1.1227    2.4750    0.0000 C   0  0  0  0  0  0  0  0  0  0  0  0
    1.1227    3.3000    0.0000 N   0  0  0  0  0  0  0  0  0  0  0  0
    0.4083    3.7125    0.0000 C   0  0  0  0  0  0  0  0  0  0  0  0
   -0.3062    3.3000    0.0000 C   0  0  0  0  0  0  0  0  0  0  0  0
   -0.3062    2.4750    0.0000 C   0  0  0  0  0  0  0  0  0  0  0  0
    0.4083    2.0625    0.0000 C   0  0  0  0  0  0  0  0  0  0  0  0
  2  1  1  0  0  0  0
  3  2  2  0  0  0  0
  4  3  1  0  0  0  0
  5  4  2  0  0  0  0
  6  5  1  0  0  0  0
  1  6  2  0  0  0  0
  1  7  1  0  0  0  0
  7  8  2  0  0  0  0
  7  9  1  0  0  0  0
 10  9  1  0  0  0  0
 11 10  2  0  0  0  0
 12 11  1  0  0  0  0
 13 12  2  0  0  0  0
 14 13  1  0  0  0  0
  9 14  2  0  0  0  0
M  END
> <ChemID>
100242

> <CAS>
91-02-1

> <Original_SMILES>
O=C(c1cccc[n]1)c1ccccc1

> <preferred_name>
Methanone, phenyl-2-pyridinyl-

> <dsstox_substance_id>
DTXSID7059016

> <dsstox_compound_id>
DTXCID1048708

> <qc_level>
Public_High

> <Canonical_QSARr>
O=C(C1=CC=CC=N1)C1C=CC=CC=1

> <InChI_Code_QSARr>
InChI=1S/C12H9NO/c14-12(10-6-2-1-3-7-10)11-8-4-5-9-13-11/h1-9H

> <InChI Key_QSARr>
GCSHUYKULREZSJ-UHFFFAOYSA-N

> <Salt_Solvent>


> <Salt_Solvent_ID>
0

> <MPID>
100252

> <Tr_1_Tst_0>
1

> <Ready_Biodeg>
1.0

$$$$
Row235
  Mrv171c012251911052D          

 10 10  0  0  0  0            999 V2000
    1.7100   -1.1716    0.0000 C   0  0  0  0  0  0  0  0  0  0  0  0
    2.4245   -0.7591    0.0000 C   0  0  0  0  0  0  0  0  0  0  0  0
    3.1389   -0.3466    0.0000 N   0  0  0  0  0  0  0  0  0  0  0  0
    0.9955   -0.7591    0.0000 C   0  0  0  0  0  0  0  0  0  0  0  0
    0.9955    0.0659    0.0000 C   0  0  0  0  0  0  0  0  0  0  0  0
    0.9955    0.8909    0.0000 N   0  0  0  0  0  0  0  0  0  0  0  0
    0.2811   -1.1716    0.0000 C   0  0  0  0  0  0  0  0  0  0  0  0
    0.2811   -1.9966    0.0000 C   0  0  0  0  0  0  0  0  0  0  0  0
    0.9955   -2.4091    0.0000 C   0  0  0  0  0  0  0  0  0  0  0  0
    1.7100   -1.9966    0.0000 C   0  0  0  0  0  0  0  0  0  0  0  0
  1  2  1  0  0  0  0
  2  3  3  0  0  0  0
  4  1  1  0  0  0  0
  4  5  1  0  0  0  0
  5  6  3  0  0  0  0
  7  4  2  0  0  0  0
  8  7  1  0  0  0  0
  9  8  2  0  0  0  0
 10  9  1  0  0  0  0
  1 10  2  0  0  0  0
M  END
> <ChemID>
100243

> <CAS>
91-15-6

> <Original_SMILES>
N#Cc1ccccc1C#N

> <preferred_name>
1,2-Benzenedicarbonitrile

> <dsstox_substance_id>
DTXSID8029604

> <dsstox_compound_id>
DTXCID709604

> <qc_level>
DSSTox_Low

> <Canonical_QSARr>
N#CC1=CC=CC=C1C#N

> <InChI_Code_QSARr>
InChI=1S/C8H4N2/c9-5-7-3-1-2-4-8(7)6-10/h1-4H

> <InChI Key_QSARr>
XQZYPMVTSDWCCE-UHFFFAOYSA-N

> <Salt_Solvent>


> <Salt_Solvent_ID>
0

> <MPID>
100253

> <Tr_1_Tst_0>
1

> <Ready_Biodeg>
0.0

$$$$
Row236
  Mrv171c012251911052D          

 10 10  0  0  0  0            999 V2000
    1.2954   -1.0656    0.0000 C   0  0  0  0  0  0  0  0  0  0  0  0
    1.2954   -1.8906    0.0000 C   0  0  0  0  0  0  0  0  0  0  0  0
    2.0099   -2.3031    0.0000 C   0  0  0  0  0  0  0  0  0  0  0  0
    2.7244   -1.8906    0.0000 C   0  0  0  0  0  0  0  0  0  0  0  0
    2.7244   -1.0656    0.0000 C   0  0  0  0  0  0  0  0  0  0  0  0
    2.0099   -0.6531    0.0000 C   0  0  0  0  0  0  0  0  0  0  0  0
    2.0099    0.1719    0.0000 O   0  0  0  0  0  0  0  0  0  0  0  0
    1.2954    0.5844    0.0000 C   0  0  0  0  0  0  0  0  0  0  0  0
    0.5810   -0.6531    0.0000 O   0  0  0  0  0  0  0  0  0  0  0  0
    0.5810    0.1719    0.0000 C   0  0  0  0  0  0  0  0  0  0  0  0
  2  1  2  0  0  0  0
  3  2  1  0  0  0  0
  4  3  2  0  0  0  0
  5  4  1  0  0  0  0
  6  5  2  0  0  0  0
  1  6  1  0  0  0  0
  6  7  1  0  0  0  0
  7  8  1  0  0  0  0
  1  9  1  0  0  0  0
  9 10  1  0  0  0  0
M  END
> <ChemID>
100244

> <CAS>
91-16-7

> <Original_SMILES>
COc1ccccc1OC

> <preferred_name>
1,2-Dimethoxybenzene

> <dsstox_substance_id>
DTXSID7047065

> <dsstox_compound_id>
DTXCID5027065

> <qc_level>
DSSTox_Low

> <Canonical_QSARr>
COC1=CC=CC=C1OC

> <InChI_Code_QSARr>
InChI=1S/C8H10O2/c1-9-7-5-3-4-6-8(7)10-2/h3-6H,1-2H3

> <InChI Key_QSARr>
ABDKAPXRBAPSQN-UHFFFAOYSA-N

> <Salt_Solvent>


> <Salt_Solvent_ID>
0

> <MPID>
100254

> <Tr_1_Tst_0>
0

> <Ready_Biodeg>
1.0

$$$$
Row237
  Mrv171c012251911052D          

 10 11  0  0  0  0            999 V2000
    1.4297   -0.4125    0.0000 C   0  0  0  0  0  0  0  0  0  0  0  0
    0.7153    0.0000    0.0000 C   0  0  0  0  0  0  0  0  0  0  0  0
    0.0008   -0.4125    0.0000 C   0  0  0  0  0  0  0  0  0  0  0  0
    0.0008   -1.2375    0.0000 C   0  0  0  0  0  0  0  0  0  0  0  0
    0.7153   -1.6500    0.0000 C   0  0  0  0  0  0  0  0  0  0  0  0
    1.4297   -1.2375    0.0000 C   0  0  0  0  0  0  0  0  0  0  0  0
    2.1442   -1.6500    0.0000 C   0  0  0  0  0  0  0  0  0  0  0  0
    2.8587   -1.2375    0.0000 C   0  0  0  0  0  0  0  0  0  0  0  0
    2.8587   -0.4125    0.0000 C   0  0  0  0  0  0  0  0  0  0  0  0
    2.1442    0.0000    0.0000 C   0  0  0  0  0  0  0  0  0  0  0  0
  2  1  1  0  0  0  0
  3  2  1  0  0  0  0
  4  3  1  0  0  0  0
  5  4  1  0  0  0  0
  6  5  1  0  0  0  0
  6  1  1  0  0  0  0
  7  6  1  0  0  0  0
  8  7  1  0  0  0  0
  9  8  1  0  0  0  0
 10  9  1  0  0  0  0
  1 10  1  0  0  0  0
M  END
> <ChemID>
100245

> <CAS>
91-17-8

> <Original_SMILES>
C1CCCC2CCCCC21

> <preferred_name>
Decalin

> <dsstox_substance_id>
DTXSID1024912

> <dsstox_compound_id>
DTXCID304912

> <qc_level>
DSSTox_Low

> <Canonical_QSARr>
C1CCCC2CCCCC21

> <InChI_Code_QSARr>
InChI=1S/C10H18/c1-2-6-10-8-4-3-7-9(10)5-1/h9-10H,1-8H2

> <InChI Key_QSARr>
NNBZCPXTIHJBJL-UHFFFAOYSA-N

> <Salt_Solvent>


> <Salt_Solvent_ID>
0

> <MPID>
100255

> <Tr_1_Tst_0>
1

> <Ready_Biodeg>
0.0

$$$$
Row238
  Mrv171c012251911052D          

 10 11  0  0  0  0            999 V2000
    0.7153   -1.6500    0.0000 C   0  0  0  0  0  0  0  0  0  0  0  0
    0.0008   -1.2375    0.0000 C   0  0  0  0  0  0  0  0  0  0  0  0
    0.0008   -0.4125    0.0000 C   0  0  0  0  0  0  0  0  0  0  0  0
    0.7153    0.0000    0.0000 C   0  0  0  0  0  0  0  0  0  0  0  0
    1.4297   -0.4125    0.0000 C   0  0  0  0  0  0  0  0  0  0  0  0
    2.1442    0.0000    0.0000 C   0  0  0  0  0  0  0  0  0  0  0  0
    2.8587   -0.4125    0.0000 C   0  0  0  0  0  0  0  0  0  0  0  0
    2.8587   -1.2375    0.0000 C   0  0  0  0  0  0  0  0  0  0  0  0
    2.1442   -1.6500    0.0000 C   0  0  0  0  0  0  0  0  0  0  0  0
    1.4297   -1.2375    0.0000 C   0  0  0  0  0  0  0  0  0  0  0  0
  2  1  1  0  0  0  0
  3  2  2  0  0  0  0
  4  3  1  0  0  0  0
  5  4  2  0  0  0  0
  5  6  1  0  0  0  0
  6  7  2  0  0  0  0
  7  8  1  0  0  0  0
  8  9  2  0  0  0  0
  9 10  1  0  0  0  0
  1 10  2  0  0  0  0
 10  5  1  0  0  0  0
M  END
> <ChemID>
100246

> <CAS>
91-20-3

> <Original_SMILES>
c1cccc2ccccc21

> <preferred_name>
Naphthalene

> <dsstox_substance_id>
DTXSID8020913

> <dsstox_compound_id>
DTXCID00913

> <qc_level>
DSSTox_Low

> <Canonical_QSARr>
C1=CC=CC2=CC=CC=C21

> <InChI_Code_QSARr>
InChI=1S/C10H8/c1-2-6-10-8-4-3-7-9(10)5-1/h1-8H

> <InChI Key_QSARr>
UFWIBTONFRDIAS-UHFFFAOYSA-N

> <Salt_Solvent>


> <Salt_Solvent_ID>
0

> <MPID>
100256

> <Tr_1_Tst_0>
1

> <Ready_Biodeg>
1.0

$$$$
Row239
  Mrv171c012251911052D          

 10 11  0  0  0  0            999 V2000
    0.7153    0.0000    0.0000 N   0  0  0  0  0  0  0  0  0  0  0  0
    1.4297   -0.4125    0.0000 C   0  0  0  0  0  0  0  0  0  0  0  0
    2.1442    0.0000    0.0000 C   0  0  0  0  0  0  0  0  0  0  0  0
    2.8587   -0.4125    0.0000 C   0  0  0  0  0  0  0  0  0  0  0  0
    2.8587   -1.2375    0.0000 C   0  0  0  0  0  0  0  0  0  0  0  0
    2.1442   -1.6500    0.0000 C   0  0  0  0  0  0  0  0  0  0  0  0
    1.4297   -1.2375    0.0000 C   0  0  0  0  0  0  0  0  0  0  0  0
    0.7153   -1.6500    0.0000 C   0  0  0  0  0  0  0  0  0  0  0  0
    0.0008   -1.2375    0.0000 C   0  0  0  0  0  0  0  0  0  0  0  0
    0.0008   -0.4125    0.0000 C   0  0  0  0  0  0  0  0  0  0  0  0
  2  1  1  0  0  0  0
  2  3  1  0  0  0  0
  3  4  2  0  0  0  0
  4  5  1  0  0  0  0
  5  6  2  0  0  0  0
  6  7  1  0  0  0  0
  7  2  2  0  0  0  0
  8  7  1  0  0  0  0
  9  8  2  0  0  0  0
 10  9  1  0  0  0  0
  1 10  2  0  0  0  0
M  END
> <ChemID>
100247

> <CAS>
91-22-5

> <Original_SMILES>
c1cccc2[n]cccc21

> <preferred_name>
Quinoline

> <dsstox_substance_id>
DTXSID1021798

> <dsstox_compound_id>
DTXCID401798

> <qc_level>
DSSTox_Low

> <Canonical_QSARr>
C1=CC=NC2C=CC=CC=21

> <InChI_Code_QSARr>
InChI=1S/C9H7N/c1-2-6-9-8(4-1)5-3-7-10-9/h1-7H

> <InChI Key_QSARr>
SMWDFEZZVXVKRB-UHFFFAOYSA-N

> <Salt_Solvent>


> <Salt_Solvent_ID>
0

> <MPID>
100257

> <Tr_1_Tst_0>
1

> <Ready_Biodeg>
1.0

$$$$
Row240
  Mrv171c012251911052D          

 11 11  0  0  0  0            999 V2000
    0.2932   -0.9192    0.0000 C   0  0  0  0  0  0  0  0  0  0  0  0
    0.2932   -1.7442    0.0000 O   0  0  0  0  0  0  0  0  0  0  0  0
    1.0076   -2.1567    0.0000 C   0  0  0  0  0  0  0  0  0  0  0  0
    1.0076   -2.9817    0.0000 C   0  0  0  0  0  0  0  0  0  0  0  0
    1.7221   -3.3942    0.0000 C   0  0  0  0  0  0  0  0  0  0  0  0
    2.4366   -2.9817    0.0000 C   0  0  0  0  0  0  0  0  0  0  0  0
    2.4366   -2.1567    0.0000 C   0  0  0  0  0  0  0  0  0  0  0  0
    1.7221   -1.7442    0.0000 C   0  0  0  0  0  0  0  0  0  0  0  0
    1.7221   -0.9192    0.0000 N   0  3  0  0  0  0  0  0  0  0  0  0
    1.0076   -0.5067    0.0000 O   0  5  0  0  0  0  0  0  0  0  0  0
    2.4366   -0.5067    0.0000 O   0  0  0  0  0  0  0  0  0  0  0  0
  1  2  1  0  0  0  0
  2  3  1  0  0  0  0
  4  3  1  0  0  0  0
  5  4  2  0  0  0  0
  6  5  1  0  0  0  0
  7  6  2  0  0  0  0
  8  7  1  0  0  0  0
  3  8  2  0  0  0  0
  8  9  1  0  0  0  0
  9 10  1  0  0  0  0
  9 11  2  0  0  0  0
M  CHG  2   9   1  10  -1
M  END
> <ChemID>
100248

> <CAS>
91-23-6

> <Original_SMILES>
COc1ccccc1[N+]([O-])=O

> <preferred_name>
1-Methoxy-2-nitrobenzene

> <dsstox_substance_id>
DTXSID3020962

> <dsstox_compound_id>
DTXCID70962

> <qc_level>
DSSTox_Low

> <Canonical_QSARr>
COC1C=CC=CC=1[N+]([O-])=O

> <InChI_Code_QSARr>
InChI=1S/C7H7NO3/c1-11-7-5-3-2-4-6(7)8(9)10/h2-5H,1H3

> <InChI Key_QSARr>
CFBYEGUGFPZCNF-UHFFFAOYSA-N

> <Salt_Solvent>


> <Salt_Solvent_ID>
0

> <MPID>
100258

> <Tr_1_Tst_0>
0

> <Ready_Biodeg>
0.0

$$$$
Row241
  Mrv171c012251911052D          

 11 12  0  0  0  0            999 V2000
    1.7532   -0.5635    0.0000 C   0  0  0  0  0  0  0  0  0  0  0  0
    1.0387   -0.1510    0.0000 C   0  0  0  0  0  0  0  0  0  0  0  0
    0.3243   -0.5635    0.0000 C   0  0  0  0  0  0  0  0  0  0  0  0
    0.3243   -1.3885    0.0000 C   0  0  0  0  0  0  0  0  0  0  0  0
    1.0387   -1.8010    0.0000 C   0  0  0  0  0  0  0  0  0  0  0  0
    1.7532   -1.3885    0.0000 C   0  0  0  0  0  0  0  0  0  0  0  0
    2.4677   -1.8010    0.0000 C   0  0  0  0  0  0  0  0  0  0  0  0
    3.1822   -1.3885    0.0000 C   0  0  0  0  0  0  0  0  0  0  0  0
    3.1822   -0.5635    0.0000 C   0  0  0  0  0  0  0  0  0  0  0  0
    3.8966   -0.1510    0.0000 N   0  0  0  0  0  0  0  0  0  0  0  0
    2.4677   -0.1510    0.0000 C   0  0  0  0  0  0  0  0  0  0  0  0
  2  1  1  0  0  0  0
  3  2  2  0  0  0  0
  4  3  1  0  0  0  0
  5  4  2  0  0  0  0
  6  5  1  0  0  0  0
  6  1  2  0  0  0  0
  7  6  1  0  0  0  0
  8  7  2  0  0  0  0
  9  8  1  0  0  0  0
  9 10  1  0  0  0  0
 11  9  2  0  0  0  0
  1 11  1  0  0  0  0
M  END
> <ChemID>
100249

> <CAS>
91-59-8

> <Original_SMILES>
Nc1cc2ccccc2cc1

> <preferred_name>
2-Naphthylamine

> <dsstox_substance_id>
DTXSID2020921

> <dsstox_compound_id>
DTXCID60921

> <qc_level>
DSSTox_Low

> <Canonical_QSARr>
NC1=CC2C=CC=CC=2C=C1

> <InChI_Code_QSARr>
InChI=1S/C10H9N/c11-10-6-5-8-3-1-2-4-9(8)7-10/h1-7H,11H2

> <InChI Key_QSARr>
JBIJLHTVPXGSAM-UHFFFAOYSA-N

> <Salt_Solvent>


> <Salt_Solvent_ID>
0

> <MPID>
100259

> <Tr_1_Tst_0>
1

> <Ready_Biodeg>
1.0

$$$$
Row242
  Mrv171c012251911052D          

 11 12  0  0  0  0            999 V2000
    0.3247   -0.5625    0.0000 C   0  0  0  0  0  0  0  0  0  0  0  0
   -0.3897   -0.1500    0.0000 C   0  0  0  0  0  0  0  0  0  0  0  0
   -1.1042   -0.5625    0.0000 C   0  0  0  0  0  0  0  0  0  0  0  0
   -1.1042   -1.3875    0.0000 C   0  0  0  0  0  0  0  0  0  0  0  0
   -0.3897   -1.8000    0.0000 C   0  0  0  0  0  0  0  0  0  0  0  0
    0.3247   -1.3875    0.0000 C   0  0  0  0  0  0  0  0  0  0  0  0
    1.0392   -1.8000    0.0000 C   0  0  0  0  0  0  0  0  0  0  0  0
    1.7537   -1.3875    0.0000 C   0  0  0  0  0  0  0  0  0  0  0  0
    1.7537   -0.5625    0.0000 C   0  0  0  0  0  0  0  0  0  0  0  0
    2.4682   -0.1500    0.0000 S   0  0  0  0  0  0  0  0  0  0  0  0
    1.0392   -0.1500    0.0000 C   0  0  0  0  0  0  0  0  0  0  0  0
  2  1  1  0  0  0  0
  3  2  2  0  0  0  0
  4  3  1  0  0  0  0
  5  4  2  0  0  0  0
  6  5  1  0  0  0  0
  6  1  1  0  0  0  0
  7  6  2  0  0  0  0
  8  7  1  0  0  0  0
  9  8  2  0  0  0  0
  9 10  1  0  0  0  0
 11  9  1  0  0  0  0
  1 11  2  0  0  0  0
M  END
> <ChemID>
100250

> <CAS>
91-60-1

> <Original_SMILES>
Sc1cc2ccccc2cc1

> <preferred_name>
2-Naphthalenethiol

> <dsstox_substance_id>
DTXSID1059028

> <dsstox_compound_id>
DTXCID9048720

> <qc_level>
Public_High

> <Canonical_QSARr>
SC1C=C2C=CC=CC2=CC=1

> <InChI_Code_QSARr>
InChI=1S/C10H8S/c11-10-6-5-8-3-1-2-4-9(8)7-10/h1-7,11H

> <InChI Key_QSARr>
RFCQDOVPMUSZMN-UHFFFAOYSA-N

> <Salt_Solvent>


> <Salt_Solvent_ID>
0

> <MPID>
100260

> <Tr_1_Tst_0>
1

> <Ready_Biodeg>
0.0

$$$$
Row243
  Mrv171c012251911052D          

 11 12  0  0  0  0            999 V2000
   -0.0005   -1.6510    0.0000 O   0  0  0  0  0  0  0  0  0  0  0  0
    0.7140   -1.2385    0.0000 C   0  0  0  0  0  0  0  0  0  0  0  0
    0.7140   -0.4135    0.0000 C   0  0  0  0  0  0  0  0  0  0  0  0
    1.4285   -0.0010    0.0000 C   0  0  0  0  0  0  0  0  0  0  0  0
    2.1429   -0.4135    0.0000 C   0  0  0  0  0  0  0  0  0  0  0  0
    2.8574   -0.0010    0.0000 C   0  0  0  0  0  0  0  0  0  0  0  0
    3.5719   -0.4135    0.0000 C   0  0  0  0  0  0  0  0  0  0  0  0
    3.5719   -1.2385    0.0000 C   0  0  0  0  0  0  0  0  0  0  0  0
    2.8574   -1.6510    0.0000 C   0  0  0  0  0  0  0  0  0  0  0  0
    2.1429   -1.2385    0.0000 C   0  0  0  0  0  0  0  0  0  0  0  0
    1.4285   -1.6510    0.0000 O   0  0  0  0  0  0  0  0  0  0  0  0
  1  2  2  0  0  0  0
  3  2  1  0  0  0  0
  4  3  2  0  0  0  0
  5  4  1  0  0  0  0
  5  6  1  0  0  0  0
  6  7  2  0  0  0  0
  7  8  1  0  0  0  0
  8  9  2  0  0  0  0
  9 10  1  0  0  0  0
 10  5  2  0  0  0  0
 11 10  1  0  0  0  0
  2 11  1  0  0  0  0
M  END
> <ChemID>
100251

> <CAS>
91-64-5

> <Original_SMILES>
O=C1C=Cc2ccccc2O1

> <preferred_name>
Coumarin

> <dsstox_substance_id>
DTXSID7020348

> <dsstox_compound_id>
DTXCID50348

> <qc_level>
DSSTox_Low

> <Canonical_QSARr>
O=C1C=CC2C=CC=CC=2O1

> <InChI_Code_QSARr>
InChI=1S/C9H6O2/c10-9-6-5-7-3-1-2-4-8(7)11-9/h1-6H

> <InChI Key_QSARr>
ZYGHJZDHTFUPRJ-UHFFFAOYSA-N

> <Salt_Solvent>


> <Salt_Solvent_ID>
0

> <MPID>
100261

> <Tr_1_Tst_0>
1

> <Ready_Biodeg>
1.0

$$$$
Row244
  Mrv171c012251911052D          

 11 11  0  0  0  0            999 V2000
    2.6189    1.2341    0.0000 C   0  0  0  0  0  0  0  0  0  0  0  0
    2.6189    0.4091    0.0000 C   0  0  0  0  0  0  0  0  0  0  0  0
    1.9044   -0.0034    0.0000 N   0  0  0  0  0  0  0  0  0  0  0  0
    1.9044   -0.8284    0.0000 C   0  0  0  0  0  0  0  0  0  0  0  0
    1.1900   -1.2409    0.0000 C   0  0  0  0  0  0  0  0  0  0  0  0
    1.1900   -2.0659    0.0000 C   0  0  0  0  0  0  0  0  0  0  0  0
    1.9044   -2.4784    0.0000 C   0  0  0  0  0  0  0  0  0  0  0  0
    2.6189   -2.0659    0.0000 C   0  0  0  0  0  0  0  0  0  0  0  0
    2.6189   -1.2409    0.0000 C   0  0  0  0  0  0  0  0  0  0  0  0
    1.1900    0.4091    0.0000 C   0  0  0  0  0  0  0  0  0  0  0  0
    0.4755   -0.0034    0.0000 C   0  0  0  0  0  0  0  0  0  0  0  0
  1  2  1  0  0  0  0
  2  3  1  0  0  0  0
  3  4  1  0  0  0  0
  5  4  1  0  0  0  0
  6  5  2  0  0  0  0
  7  6  1  0  0  0  0
  8  7  2  0  0  0  0
  9  8  1  0  0  0  0
  4  9  2  0  0  0  0
  3 10  1  0  0  0  0
 10 11  1  0  0  0  0
M  END
> <ChemID>
100252

> <CAS>
91-66-7

> <Original_SMILES>
CCN(CC)c1ccccc1

> <preferred_name>
N,N-Diethylaniline

> <dsstox_substance_id>
DTXSID8021800

> <dsstox_compound_id>
DTXCID701800

> <qc_level>
DSSTox_Low

> <Canonical_QSARr>
CCN(CC)C1C=CC=CC=1

> <InChI_Code_QSARr>
InChI=1S/C10H15N/c1-3-11(4-2)10-8-6-5-7-9-10/h5-9H,3-4H2,1-2H3

> <InChI Key_QSARr>
GGSUCNLOZRCGPQ-UHFFFAOYSA-N

> <Salt_Solvent>


> <Salt_Solvent_ID>
0

> <MPID>
100262

> <Tr_1_Tst_0>
0

> <Ready_Biodeg>
0.0

$$$$
Row245
  Mrv171c012251911052D          

 16 17  0  0  0  0            999 V2000
    4.3157   -3.4925    0.0000 Cl  0  0  0  0  0  0  0  0  0  0  0  0
    3.6012   -3.0800    0.0000 C   0  0  0  0  0  0  0  0  0  0  0  0
    3.6012   -2.2550    0.0000 C   0  0  0  0  0  0  0  0  0  0  0  0
    2.8868   -1.8425    0.0000 C   0  0  0  0  0  0  0  0  0  0  0  0
    2.8868   -1.0175    0.0000 C   0  0  0  0  0  0  0  0  0  0  0  0
    3.6012   -0.6050    0.0000 C   0  0  0  0  0  0  0  0  0  0  0  0
    3.6012    0.2200    0.0000 C   0  0  0  0  0  0  0  0  0  0  0  0
    2.8868    0.6325    0.0000 C   0  0  0  0  0  0  0  0  0  0  0  0
    2.8868    1.4575    0.0000 N   0  0  0  0  0  0  0  0  0  0  0  0
    2.1723    0.2200    0.0000 C   0  0  0  0  0  0  0  0  0  0  0  0
    1.4578    0.6325    0.0000 Cl  0  0  0  0  0  0  0  0  0  0  0  0
    2.1723   -0.6050    0.0000 C   0  0  0  0  0  0  0  0  0  0  0  0
    2.1723   -2.2550    0.0000 C   0  0  0  0  0  0  0  0  0  0  0  0
    2.1723   -3.0800    0.0000 C   0  0  0  0  0  0  0  0  0  0  0  0
    2.8868   -3.4925    0.0000 C   0  0  0  0  0  0  0  0  0  0  0  0
    2.8868   -4.3175    0.0000 N   0  0  0  0  0  0  0  0  0  0  0  0
  1  2  1  0  0  0  0
  3  2  1  0  0  0  0
  4  3  2  0  0  0  0
  4  5  1  0  0  0  0
  6  5  1  0  0  0  0
  7  6  2  0  0  0  0
  8  7  1  0  0  0  0
  8  9  1  0  0  0  0
 10  8  2  0  0  0  0
 10 11  1  0  0  0  0
 12 10  1  0  0  0  0
  5 12  2  0  0  0  0
 13  4  1  0  0  0  0
 14 13  2  0  0  0  0
 15 14  1  0  0  0  0
  2 15  2  0  0  0  0
 15 16  1  0  0  0  0
M  END
> <ChemID>
100253

> <CAS>
91-94-1

> <Original_SMILES>
Nc1ccc(cc1Cl)-c1cc(Cl)c(N)cc1

> <preferred_name>
3,3'-Dichlorobenzidine

> <dsstox_substance_id>
DTXSID6020432

> <dsstox_compound_id>
DTXCID60432

> <qc_level>
DSSTox_High

> <Canonical_QSARr>
NC1C=CC(=CC=1Cl)C1=CC(Cl)=C(N)C=C1

> <InChI_Code_QSARr>
InChI=1S/C12H10Cl2N2/c13-9-5-7(1-3-11(9)15)8-2-4-12(16)10(14)6-8/h1-6H,15-16H2

> <InChI Key_QSARr>
HUWXDEQWWKGHRV-UHFFFAOYSA-N

> <Salt_Solvent>


> <Salt_Solvent_ID>
0

> <MPID>
100263

> <Tr_1_Tst_0>
1

> <Ready_Biodeg>
0.0

$$$$
Row246
  Mrv171c012251911052D          

 12 13  0  0  0  0            999 V2000
    1.3498   -1.5392    0.0000 C   0  0  0  0  0  0  0  0  0  0  0  0
    1.3498   -2.3642    0.0000 C   0  0  0  0  0  0  0  0  0  0  0  0
    2.0643   -2.7767    0.0000 C   0  0  0  0  0  0  0  0  0  0  0  0
    2.7787   -2.3642    0.0000 C   0  0  0  0  0  0  0  0  0  0  0  0
    2.7787   -1.5392    0.0000 C   0  0  0  0  0  0  0  0  0  0  0  0
    2.0643   -1.1267    0.0000 C   0  0  0  0  0  0  0  0  0  0  0  0
    2.0643   -0.3017    0.0000 C   0  0  0  0  0  0  0  0  0  0  0  0
    2.7787    0.1108    0.0000 C   0  0  0  0  0  0  0  0  0  0  0  0
    2.7787    0.9358    0.0000 C   0  0  0  0  0  0  0  0  0  0  0  0
    2.0643    1.3483    0.0000 C   0  0  0  0  0  0  0  0  0  0  0  0
    1.3498    0.9358    0.0000 C   0  0  0  0  0  0  0  0  0  0  0  0
    1.3498    0.1108    0.0000 C   0  0  0  0  0  0  0  0  0  0  0  0
  2  1  1  0  0  0  0
  3  2  2  0  0  0  0
  4  3  1  0  0  0  0
  5  4  2  0  0  0  0
  6  5  1  0  0  0  0
  1  6  2  0  0  0  0
  6  7  1  0  0  0  0
  8  7  1  0  0  0  0
  9  8  2  0  0  0  0
 10  9  1  0  0  0  0
 11 10  2  0  0  0  0
 12 11  1  0  0  0  0
  7 12  2  0  0  0  0
M  END
> <ChemID>
100254

> <CAS>
92-52-4

> <Original_SMILES>
c1ccccc1-c1ccccc1

> <preferred_name>
Biphenyl

> <dsstox_substance_id>
DTXSID4020161

> <dsstox_compound_id>
DTXCID60161

> <qc_level>
DSSTox_Low

> <Canonical_QSARr>
C1=CC=CC=C1C1C=CC=CC=1

> <InChI_Code_QSARr>
InChI=1S/C12H10/c1-3-7-11(8-4-1)12-9-5-2-6-10-12/h1-10H

> <InChI Key_QSARr>
ZUOUZKKEUPVFJK-UHFFFAOYSA-N

> <Salt_Solvent>


> <Salt_Solvent_ID>
0

> <MPID>
100264

> <Tr_1_Tst_0>
1

> <Ready_Biodeg>
1.0

$$$$
Row247
  Mrv171c012251911052D          

 13 14  0  0  0  0            999 V2000
    2.6609   -3.3802    0.0000 O   0  0  0  0  0  0  0  0  0  0  0  0
    2.6609   -2.5552    0.0000 C   0  0  0  0  0  0  0  0  0  0  0  0
    3.3754   -2.1427    0.0000 C   0  0  0  0  0  0  0  0  0  0  0  0
    3.3754   -1.3177    0.0000 C   0  0  0  0  0  0  0  0  0  0  0  0
    2.6609   -0.9052    0.0000 C   0  0  0  0  0  0  0  0  0  0  0  0
    2.6609   -0.0802    0.0000 C   0  0  0  0  0  0  0  0  0  0  0  0
    3.3754    0.3323    0.0000 C   0  0  0  0  0  0  0  0  0  0  0  0
    3.3754    1.1573    0.0000 C   0  0  0  0  0  0  0  0  0  0  0  0
    2.6609    1.5698    0.0000 C   0  0  0  0  0  0  0  0  0  0  0  0
    1.9464    1.1573    0.0000 C   0  0  0  0  0  0  0  0  0  0  0  0
    1.9464    0.3323    0.0000 C   0  0  0  0  0  0  0  0  0  0  0  0
    1.9464   -1.3177    0.0000 C   0  0  0  0  0  0  0  0  0  0  0  0
    1.9464   -2.1427    0.0000 C   0  0  0  0  0  0  0  0  0  0  0  0
  1  2  1  0  0  0  0
  3  2  1  0  0  0  0
  4  3  2  0  0  0  0
  5  4  1  0  0  0  0
  5  6  1  0  0  0  0
  7  6  1  0  0  0  0
  8  7  2  0  0  0  0
  9  8  1  0  0  0  0
 10  9  2  0  0  0  0
 11 10  1  0  0  0  0
  6 11  2  0  0  0  0
 12  5  2  0  0  0  0
 13 12  1  0  0  0  0
  2 13  2  0  0  0  0
M  END
> <ChemID>
100255

> <CAS>
92-69-3

> <Original_SMILES>
Oc1ccc(cc1)-c1ccccc1

> <preferred_name>
4-Phenylphenol

> <dsstox_substance_id>
DTXSID7021152

> <dsstox_compound_id>
DTXCID601152

> <qc_level>
DSSTox_High

> <Canonical_QSARr>
OC1C=CC(=CC=1)C1C=CC=CC=1

> <InChI_Code_QSARr>
InChI=1S/C12H10O/c13-12-8-6-11(7-9-12)10-4-2-1-3-5-10/h1-9,13H

> <InChI Key_QSARr>
YXVFYQXJAXKLAK-UHFFFAOYSA-N

> <Salt_Solvent>


> <Salt_Solvent_ID>
0

> <MPID>
100265

> <Tr_1_Tst_0>
1

> <Ready_Biodeg>
0.0

$$$$
Row248
  Mrv171c012251911052D          

 14 15  0  0  0  0            999 V2000
    2.7515   -1.2334    0.0000 C   0  0  0  0  0  0  0  0  0  0  0  0
    2.0371   -0.8209    0.0000 C   0  0  0  0  0  0  0  0  0  0  0  0
    1.3226   -1.2334    0.0000 C   0  0  0  0  0  0  0  0  0  0  0  0
    0.6081   -0.8209    0.0000 C   0  0  0  0  0  0  0  0  0  0  0  0
   -0.1064   -1.2334    0.0000 O   0  0  0  0  0  0  0  0  0  0  0  0
    0.6081    0.0041    0.0000 O   0  0  0  0  0  0  0  0  0  0  0  0
    1.3226   -2.0584    0.0000 C   0  0  0  0  0  0  0  0  0  0  0  0
    0.6081   -2.4709    0.0000 O   0  0  0  0  0  0  0  0  0  0  0  0
    2.0371   -2.4709    0.0000 C   0  0  0  0  0  0  0  0  0  0  0  0
    2.7515   -2.0584    0.0000 C   0  0  0  0  0  0  0  0  0  0  0  0
    3.4660   -2.4709    0.0000 C   0  0  0  0  0  0  0  0  0  0  0  0
    4.1805   -2.0584    0.0000 C   0  0  0  0  0  0  0  0  0  0  0  0
    4.1805   -1.2334    0.0000 C   0  0  0  0  0  0  0  0  0  0  0  0
    3.4660   -0.8209    0.0000 C   0  0  0  0  0  0  0  0  0  0  0  0
  2  1  1  0  0  0  0
  3  2  2  0  0  0  0
  3  4  1  0  0  0  0
  4  5  1  0  0  0  0
  4  6  2  0  0  0  0
  7  3  1  0  0  0  0
  7  8  1  0  0  0  0
  9  7  2  0  0  0  0
 10  9  1  0  0  0  0
 10  1  2  0  0  0  0
 11 10  1  0  0  0  0
 12 11  2  0  0  0  0
 13 12  1  0  0  0  0
 14 13  2  0  0  0  0
  1 14  1  0  0  0  0
M  END
> <ChemID>
100256

> <CAS>
92-70-6

> <Original_SMILES>
Oc1cc2ccccc2cc1C(O)=O

> <preferred_name>
3-Hydroxy-2-naphthoic acid

> <dsstox_substance_id>
DTXSID3026560

> <dsstox_compound_id>
DTXCID406560

> <qc_level>
DSSTox_Low

> <Canonical_QSARr>
OC1=CC2C=CC=CC=2C=C1C(O)=O

> <InChI_Code_QSARr>
InChI=1S/C11H8O3/c12-10-6-8-4-2-1-3-7(8)5-9(10)11(13)14/h1-6,12H,(H,13,14)

> <InChI Key_QSARr>
ALKYHXVLJMQRLQ-UHFFFAOYSA-N

> <Salt_Solvent>


> <Salt_Solvent_ID>
0

> <MPID>
100266

> <Tr_1_Tst_0>
0

> <Ready_Biodeg>
0.0

$$$$
Row249
  Mrv171c012251911052D          

 20 22  0  0  0  0            999 V2000
    4.9229   -1.6407    0.0000 C   0  0  0  0  0  0  0  0  0  0  0  0
    4.2084   -1.2282    0.0000 C   0  0  0  0  0  0  0  0  0  0  0  0
    3.4939   -1.6407    0.0000 C   0  0  0  0  0  0  0  0  0  0  0  0
    2.7795   -1.2282    0.0000 C   0  0  0  0  0  0  0  0  0  0  0  0
    2.7795   -0.4032    0.0000 O   0  0  0  0  0  0  0  0  0  0  0  0
    2.0650   -1.6407    0.0000 N   0  0  0  0  0  0  0  0  0  0  0  0
    1.3505   -1.2282    0.0000 C   0  0  0  0  0  0  0  0  0  0  0  0
    1.3505   -0.4032    0.0000 C   0  0  0  0  0  0  0  0  0  0  0  0
    0.6361    0.0093    0.0000 C   0  0  0  0  0  0  0  0  0  0  0  0
   -0.0784   -0.4032    0.0000 C   0  0  0  0  0  0  0  0  0  0  0  0
   -0.0784   -1.2282    0.0000 C   0  0  0  0  0  0  0  0  0  0  0  0
    0.6361   -1.6407    0.0000 C   0  0  0  0  0  0  0  0  0  0  0  0
    3.4939   -2.4657    0.0000 C   0  0  0  0  0  0  0  0  0  0  0  0
    2.7795   -2.8782    0.0000 O   0  0  0  0  0  0  0  0  0  0  0  0
    4.2084   -2.8782    0.0000 C   0  0  0  0  0  0  0  0  0  0  0  0
    4.9229   -2.4657    0.0000 C   0  0  0  0  0  0  0  0  0  0  0  0
    5.6373   -2.8782    0.0000 C   0  0  0  0  0  0  0  0  0  0  0  0
    6.3518   -2.4657    0.0000 C   0  0  0  0  0  0  0  0  0  0  0  0
    6.3518   -1.6407    0.0000 C   0  0  0  0  0  0  0  0  0  0  0  0
    5.6373   -1.2282    0.0000 C   0  0  0  0  0  0  0  0  0  0  0  0
  2  1  1  0  0  0  0
  3  2  2  0  0  0  0
  3  4  1  0  0  0  0
  4  5  2  0  0  0  0
  4  6  1  0  0  0  0
  6  7  1  0  0  0  0
  8  7  2  0  0  0  0
  9  8  1  0  0  0  0
 10  9  2  0  0  0  0
 11 10  1  0  0  0  0
 12 11  2  0  0  0  0
  7 12  1  0  0  0  0
 13  3  1  0  0  0  0
 13 14  1  0  0  0  0
 15 13  2  0  0  0  0
 16 15  1  0  0  0  0
 16  1  1  0  0  0  0
 17 16  2  0  0  0  0
 18 17  1  0  0  0  0
 19 18  2  0  0  0  0
 20 19  1  0  0  0  0
  1 20  2  0  0  0  0
M  END
> <ChemID>
100257

> <CAS>
92-77-3

> <Original_SMILES>
Oc1cc2ccccc2cc1C(=O)Nc1ccccc1

> <preferred_name>
3-Hydroxy-2-naphthanilide

> <dsstox_substance_id>
DTXSID1052618

> <dsstox_compound_id>
DTXCID9031191

> <qc_level>
DSSTox_Low

> <Canonical_QSARr>
OC1=CC2=CC=CC=C2C=C1C(=O)NC1C=CC=CC=1

> <InChI_Code_QSARr>
InChI=1S/C17H13NO2/c19-16-11-13-7-5-4-6-12(13)10-15(16)17(20)18-14-8-2-1-3-9-14/h1-11,19H,(H,18,20)

> <InChI Key_QSARr>
JFGQHAHJWJBOPD-UHFFFAOYSA-N

> <Salt_Solvent>


> <Salt_Solvent_ID>
0

> <MPID>
100267

> <Tr_1_Tst_0>
1

> <Ready_Biodeg>
0.0

$$$$
Row250
  Mrv171c012251911052D          

 14 16  0  0  0  0            999 V2000
    2.1414    0.0005    0.0000 N   0  0  0  0  0  0  0  0  0  0  0  0
    2.8559   -0.4120    0.0000 C   0  0  0  0  0  0  0  0  0  0  0  0
    3.5704    0.0005    0.0000 C   0  0  0  0  0  0  0  0  0  0  0  0
    4.2849   -0.4120    0.0000 C   0  0  0  0  0  0  0  0  0  0  0  0
    4.2849   -1.2370    0.0000 C   0  0  0  0  0  0  0  0  0  0  0  0
    3.5704   -1.6495    0.0000 C   0  0  0  0  0  0  0  0  0  0  0  0
    2.8559   -1.2370    0.0000 C   0  0  0  0  0  0  0  0  0  0  0  0
    2.1414   -1.6495    0.0000 S   0  0  0  0  0  0  0  0  0  0  0  0
    1.4270   -1.2370    0.0000 C   0  0  0  0  0  0  0  0  0  0  0  0
    0.7125   -1.6495    0.0000 C   0  0  0  0  0  0  0  0  0  0  0  0
   -0.0020   -1.2370    0.0000 C   0  0  0  0  0  0  0  0  0  0  0  0
   -0.0020   -0.4120    0.0000 C   0  0  0  0  0  0  0  0  0  0  0  0
    0.7125    0.0005    0.0000 C   0  0  0  0  0  0  0  0  0  0  0  0
    1.4270   -0.4120    0.0000 C   0  0  0  0  0  0  0  0  0  0  0  0
  2  1  1  0  0  0  0
  2  3  2  0  0  0  0
  3  4  1  0  0  0  0
  4  5  2  0  0  0  0
  5  6  1  0  0  0  0
  6  7  2  0  0  0  0
  7  2  1  0  0  0  0
  8  7  1  0  0  0  0
  9  8  1  0  0  0  0
  9 10  1  0  0  0  0
 10 11  2  0  0  0  0
 11 12  1  0  0  0  0
 12 13  2  0  0  0  0
 13 14  1  0  0  0  0
  1 14  1  0  0  0  0
 14  9  2  0  0  0  0
M  END
> <ChemID>
100258

> <CAS>
92-84-2

> <Original_SMILES>
c1cccc2Nc3ccccc3Sc21

> <preferred_name>
Phenothiazine

> <dsstox_substance_id>
DTXSID5021126

> <dsstox_compound_id>
DTXCID301126

> <qc_level>
DSSTox_Low

> <Canonical_QSARr>
C1=CC=CC2NC3=CC=CC=C3SC=21

> <InChI_Code_QSARr>
InChI=1S/C12H9NS/c1-3-7-11-9(5-1)13-10-6-2-4-8-12(10)14-11/h1-8,13H

> <InChI Key_QSARr>
WJFKNYWRSNBZNX-UHFFFAOYSA-N

> <Salt_Solvent>


> <Salt_Solvent_ID>
0

> <MPID>
100268

> <Tr_1_Tst_0>
1

> <Ready_Biodeg>
0.0

$$$$
Row251
  Mrv171c012251911052D          

 14 16  0  0  0  0            999 V2000
    2.8579   -0.0000    0.0000 C   0  0  0  0  0  0  0  0  0  0  0  0
    3.5724   -0.4125    0.0000 C   0  0  0  0  0  0  0  0  0  0  0  0
    4.2868    0.0000    0.0000 C   0  0  0  0  0  0  0  0  0  0  0  0
    4.2868    0.8250    0.0000 C   0  0  0  0  0  0  0  0  0  0  0  0
    3.5724    1.2375    0.0000 C   0  0  0  0  0  0  0  0  0  0  0  0
    2.8579    0.8250    0.0000 C   0  0  0  0  0  0  0  0  0  0  0  0
    2.1434    1.2375    0.0000 S   0  0  0  0  0  0  0  0  0  0  0  0
    1.4289    0.8250    0.0000 C   0  0  0  0  0  0  0  0  0  0  0  0
    1.4289    0.0000    0.0000 C   0  0  0  0  0  0  0  0  0  0  0  0
    0.7145   -0.4125    0.0000 C   0  0  0  0  0  0  0  0  0  0  0  0
    0.0000   -0.0000    0.0000 C   0  0  0  0  0  0  0  0  0  0  0  0
    0.0000    0.8250    0.0000 C   0  0  0  0  0  0  0  0  0  0  0  0
    0.7145    1.2375    0.0000 C   0  0  0  0  0  0  0  0  0  0  0  0
    2.1434   -0.4125    0.0000 S   0  0  0  0  0  0  0  0  0  0  0  0
  2  1  1  0  0  0  0
  3  2  2  0  0  0  0
  4  3  1  0  0  0  0
  5  4  2  0  0  0  0
  6  5  1  0  0  0  0
  6  1  2  0  0  0  0
  7  6  1  0  0  0  0
  8  7  1  0  0  0  0
  8  9  1  0  0  0  0
  9 10  2  0  0  0  0
 10 11  1  0  0  0  0
 11 12  2  0  0  0  0
 12 13  1  0  0  0  0
 13  8  2  0  0  0  0
 14  9  1  0  0  0  0
  1 14  1  0  0  0  0
M  END
> <ChemID>
100259

> <CAS>
92-85-3

> <Original_SMILES>
c1cccc2Sc3ccccc3Sc21

> <preferred_name>
Thianthrene

> <dsstox_substance_id>
DTXSID6059071

> <dsstox_compound_id>
DTXCID4048779

> <qc_level>
Public_High

> <Canonical_QSARr>
C1=CC=CC2SC3=CC=CC=C3SC=21

> <InChI_Code_QSARr>
InChI=1S/C12H8S2/c1-2-6-10-9(5-1)13-11-7-3-4-8-12(11)14-10/h1-8H

> <InChI Key_QSARr>
GVIJJXMXTUZIOD-UHFFFAOYSA-N

> <Salt_Solvent>


> <Salt_Solvent_ID>
0

> <MPID>
100269

> <Tr_1_Tst_0>
1

> <Ready_Biodeg>
0.0

$$$$
Row252
  Mrv171c012251911052D          

 14 15  0  0  0  0            999 V2000
    0.7145    2.0626    0.0000 C   0  0  0  0  0  0  0  0  0  0  0  0
    1.4290    2.4751    0.0000 C   0  0  0  0  0  0  0  0  0  0  0  0
    1.4290    3.3001    0.0000 C   0  0  0  0  0  0  0  0  0  0  0  0
    0.7145    3.7126    0.0000 C   0  0  0  0  0  0  0  0  0  0  0  0
    0.7145    4.5376    0.0000 Br  0  0  0  0  0  0  0  0  0  0  0  0
    0.0000    3.3001    0.0000 C   0  0  0  0  0  0  0  0  0  0  0  0
    0.0000    2.4751    0.0000 C   0  0  0  0  0  0  0  0  0  0  0  0
    0.7145    1.2376    0.0000 C   0  0  0  0  0  0  0  0  0  0  0  0
    0.0000    0.8251    0.0000 C   0  0  0  0  0  0  0  0  0  0  0  0
    0.0000    0.0001    0.0000 C   0  0  0  0  0  0  0  0  0  0  0  0
    0.7145   -0.4124    0.0000 C   0  0  0  0  0  0  0  0  0  0  0  0
    0.7145   -1.2374    0.0000 Br  0  0  0  0  0  0  0  0  0  0  0  0
    1.4290    0.0001    0.0000 C   0  0  0  0  0  0  0  0  0  0  0  0
    1.4290    0.8251    0.0000 C   0  0  0  0  0  0  0  0  0  0  0  0
  2  1  1  0  0  0  0
  3  2  2  0  0  0  0
  4  3  1  0  0  0  0
  4  5  1  0  0  0  0
  6  4  2  0  0  0  0
  7  6  1  0  0  0  0
  1  7  2  0  0  0  0
  1  8  1  0  0  0  0
  9  8  1  0  0  0  0
 10  9  2  0  0  0  0
 11 10  1  0  0  0  0
 11 12  1  0  0  0  0
 13 11  2  0  0  0  0
 14 13  1  0  0  0  0
  8 14  2  0  0  0  0
M  END
> <ChemID>
100260

> <CAS>
92-86-4

> <Original_SMILES>
Brc1ccc(cc1)-c1ccc(Br)cc1

> <preferred_name>
1,1'-Biphenyl, 4,4'-dibromo-

> <dsstox_substance_id>
DTXSID1059072

> <dsstox_compound_id>
DTXCID3048780

> <qc_level>
Public_High

> <Canonical_QSARr>
BrC1C=CC(=CC=1)C1C=CC(Br)=CC=1

> <InChI_Code_QSARr>
InChI=1S/C12H8Br2/c13-11-5-1-9(2-6-11)10-3-7-12(14)8-4-10/h1-8H

> <InChI Key_QSARr>
HQJQYILBCQPYBI-UHFFFAOYSA-N

> <Salt_Solvent>


> <Salt_Solvent_ID>
0

> <MPID>
100270

> <Tr_1_Tst_0>
0

> <Ready_Biodeg>
0.0

$$$$
Row253
  Mrv171c012251911052D          

 18 20  0  0  0  0            999 V2000
    3.3021   -2.3606    0.0000 C   0  0  0  0  0  0  0  0  0  0  0  0
    3.3021   -1.5356    0.0000 C   0  0  0  0  0  0  0  0  0  0  0  0
    4.0166   -1.1231    0.0000 C   0  0  0  0  0  0  0  0  0  0  0  0
    4.0166   -0.2981    0.0000 C   0  0  0  0  0  0  0  0  0  0  0  0
    3.3021    0.1144    0.0000 C   0  0  0  0  0  0  0  0  0  0  0  0
    3.3021    0.9394    0.0000 C   0  0  0  0  0  0  0  0  0  0  0  0
    4.0166    1.3519    0.0000 C   0  0  0  0  0  0  0  0  0  0  0  0
    4.0166    2.1769    0.0000 C   0  0  0  0  0  0  0  0  0  0  0  0
    3.3021    2.5894    0.0000 C   0  0  0  0  0  0  0  0  0  0  0  0
    2.5876    2.1769    0.0000 C   0  0  0  0  0  0  0  0  0  0  0  0
    2.5876    1.3519    0.0000 C   0  0  0  0  0  0  0  0  0  0  0  0
    2.5876   -0.2981    0.0000 C   0  0  0  0  0  0  0  0  0  0  0  0
    2.5876   -1.1231    0.0000 C   0  0  0  0  0  0  0  0  0  0  0  0
    2.5876   -2.7731    0.0000 C   0  0  0  0  0  0  0  0  0  0  0  0
    2.5876   -3.5981    0.0000 C   0  0  0  0  0  0  0  0  0  0  0  0
    3.3021   -4.0106    0.0000 C   0  0  0  0  0  0  0  0  0  0  0  0
    4.0166   -3.5981    0.0000 C   0  0  0  0  0  0  0  0  0  0  0  0
    4.0166   -2.7731    0.0000 C   0  0  0  0  0  0  0  0  0  0  0  0
  1  2  1  0  0  0  0
  3  2  2  0  0  0  0
  4  3  1  0  0  0  0
  5  4  2  0  0  0  0
  5  6  1  0  0  0  0
  7  6  2  0  0  0  0
  8  7  1  0  0  0  0
  9  8  2  0  0  0  0
 10  9  1  0  0  0  0
 11 10  2  0  0  0  0
  6 11  1  0  0  0  0
 12  5  1  0  0  0  0
 13 12  2  0  0  0  0
  2 13  1  0  0  0  0
 14  1  2  0  0  0  0
 15 14  1  0  0  0  0
 16 15  2  0  0  0  0
 17 16  1  0  0  0  0
 18 17  2  0  0  0  0
  1 18  1  0  0  0  0
M  END
> <ChemID>
100261

> <CAS>
92-94-4

> <Original_SMILES>
c1cc(ccc1-c1ccccc1)-c1ccccc1

> <preferred_name>
1,1':4',1''-Terphenyl

> <dsstox_substance_id>
DTXSID6029121

> <dsstox_compound_id>
DTXCID907888

> <qc_level>
DSSTox_Low

> <Canonical_QSARr>
C1=CC(=CC=C1C1C=CC=CC=1)C1C=CC=CC=1

> <InChI_Code_QSARr>
InChI=1S/C18H14/c1-3-7-15(8-4-1)17-11-13-18(14-12-17)16-9-5-2-6-10-16/h1-14H

> <InChI Key_QSARr>
XJKSTNDFUHDPQJ-UHFFFAOYSA-N

> <Salt_Solvent>


> <Salt_Solvent_ID>
0

> <MPID>
100271

> <Tr_1_Tst_0>
1

> <Ready_Biodeg>
0.0

$$$$
Row254
  Mrv171c012251911052D          

 13 14  0  0  0  0            999 V2000
   -0.3847   -0.8567    0.0000 C   0  0  0  0  0  0  0  0  0  0  0  0
   -1.0992   -0.4442    0.0000 C   0  0  0  0  0  0  0  0  0  0  0  0
   -1.8137   -0.8567    0.0000 C   0  0  0  0  0  0  0  0  0  0  0  0
   -1.8137   -1.6817    0.0000 C   0  0  0  0  0  0  0  0  0  0  0  0
   -1.0992   -2.0942    0.0000 C   0  0  0  0  0  0  0  0  0  0  0  0
   -0.3847   -1.6817    0.0000 C   0  0  0  0  0  0  0  0  0  0  0  0
    0.3298   -2.0942    0.0000 C   0  0  0  0  0  0  0  0  0  0  0  0
    1.0442   -1.6817    0.0000 C   0  0  0  0  0  0  0  0  0  0  0  0
    1.0442   -0.8567    0.0000 C   0  0  0  0  0  0  0  0  0  0  0  0
    1.7587   -0.4442    0.0000 C   0  0  0  0  0  0  0  0  0  0  0  0
    1.7587    0.3808    0.0000 O   0  0  0  0  0  0  0  0  0  0  0  0
    2.4732   -0.8567    0.0000 O   0  0  0  0  0  0  0  0  0  0  0  0
    0.3298   -0.4442    0.0000 C   0  0  0  0  0  0  0  0  0  0  0  0
  2  1  1  0  0  0  0
  3  2  2  0  0  0  0
  4  3  1  0  0  0  0
  5  4  2  0  0  0  0
  6  5  1  0  0  0  0
  6  1  1  0  0  0  0
  7  6  2  0  0  0  0
  8  7  1  0  0  0  0
  9  8  2  0  0  0  0
  9 10  1  0  0  0  0
 10 11  2  0  0  0  0
 10 12  1  0  0  0  0
 13  9  1  0  0  0  0
  1 13  2  0  0  0  0
M  END
> <ChemID>
100262

> <CAS>
93-09-4

> <Original_SMILES>
OC(=O)c1cc2ccccc2cc1

> <preferred_name>
2-Naphthalenecarboxylic acid

> <dsstox_substance_id>
DTXSID1059078

> <dsstox_compound_id>
DTXCID2048828

> <qc_level>
Public_High

> <Canonical_QSARr>
OC(=O)C1C=C2C=CC=CC2=CC=1

> <InChI_Code_QSARr>
InChI=1S/C11H8O2/c12-11(13)10-6-5-8-3-1-2-4-9(8)7-10/h1-7H,(H,12,13)

> <InChI Key_QSARr>
UOBYKYZJUGYBDK-UHFFFAOYSA-N

> <Salt_Solvent>


> <Salt_Solvent_ID>
0

> <MPID>
100272

> <Tr_1_Tst_0>
1

> <Ready_Biodeg>
1.0

$$$$
Row255
  Mrv171c012251911052D          

 13 14  0  0  0  0            999 V2000
   -0.3847   -0.8567    0.0000 C   0  0  0  0  0  0  0  0  0  0  0  0
   -1.0992   -0.4442    0.0000 C   0  0  0  0  0  0  0  0  0  0  0  0
   -1.8137   -0.8567    0.0000 C   0  0  0  0  0  0  0  0  0  0  0  0
   -1.8137   -1.6817    0.0000 C   0  0  0  0  0  0  0  0  0  0  0  0
   -1.0992   -2.0942    0.0000 C   0  0  0  0  0  0  0  0  0  0  0  0
   -0.3847   -1.6817    0.0000 C   0  0  0  0  0  0  0  0  0  0  0  0
    0.3298   -2.0942    0.0000 C   0  0  0  0  0  0  0  0  0  0  0  0
    1.0442   -1.6817    0.0000 C   0  0  0  0  0  0  0  0  0  0  0  0
    1.0442   -0.8567    0.0000 C   0  0  0  0  0  0  0  0  0  0  0  0
    1.7587   -0.4442    0.0000 C   0  0  0  0  0  0  0  0  0  0  0  0
    1.7587    0.3808    0.0000 O   0  0  0  0  0  0  0  0  0  0  0  0
    2.4732   -0.8567    0.0000 O   0  0  0  0  0  0  0  0  0  0  0  0
    0.3298   -0.4442    0.0000 N   0  0  0  0  0  0  0  0  0  0  0  0
  2  1  1  0  0  0  0
  3  2  2  0  0  0  0
  4  3  1  0  0  0  0
  5  4  2  0  0  0  0
  6  5  1  0  0  0  0
  6  1  1  0  0  0  0
  7  6  2  0  0  0  0
  8  7  1  0  0  0  0
  9  8  2  0  0  0  0
  9 10  1  0  0  0  0
 10 11  2  0  0  0  0
 10 12  1  0  0  0  0
 13  9  1  0  0  0  0
  1 13  2  0  0  0  0
M  END
> <ChemID>
100263

> <CAS>
93-10-7

> <Original_SMILES>
OC(=O)c1ccc2ccccc2[n]1

> <preferred_name>
2-Quinolinecarboxylic acid

> <dsstox_substance_id>
DTXSID6059079

> <dsstox_compound_id>
DTXCID7048829

> <qc_level>
Public_High

> <Canonical_QSARr>
OC(=O)C1=CC=C2C=CC=CC2=N1

> <InChI_Code_QSARr>
InChI=1S/C10H7NO2/c12-10(13)9-6-5-7-3-1-2-4-8(7)11-9/h1-6H,(H,12,13)

> <InChI Key_QSARr>
LOAUVZALPPNFOQ-UHFFFAOYSA-N

> <Salt_Solvent>


> <Salt_Solvent_ID>
0

> <MPID>
100273

> <Tr_1_Tst_0>
1

> <Ready_Biodeg>
1.0

$$$$
Row256
  Mrv171c012251911052D          

 13 13  0  0  0  0            999 V2000
    3.4084   -0.4196    0.0000 O   0  0  0  0  0  0  0  0  0  0  0  0
    2.6939   -0.8321    0.0000 C   0  0  0  0  0  0  0  0  0  0  0  0
    1.9794   -0.4196    0.0000 C   0  0  0  0  0  0  0  0  0  0  0  0
    1.9794    0.4054    0.0000 O   0  0  0  0  0  0  0  0  0  0  0  0
    1.2650    0.8179    0.0000 C   0  0  0  0  0  0  0  0  0  0  0  0
    1.2650   -0.8321    0.0000 C   0  0  0  0  0  0  0  0  0  0  0  0
    1.2650   -1.6571    0.0000 C   0  0  0  0  0  0  0  0  0  0  0  0
    1.9794   -2.0696    0.0000 C   0  0  0  0  0  0  0  0  0  0  0  0
    1.9794   -2.8946    0.0000 C   0  0  0  0  0  0  0  0  0  0  0  0
    1.2650   -3.3071    0.0000 C   0  0  0  0  0  0  0  0  0  0  0  0
    1.2650   -4.1321    0.0000 C   0  0  0  0  0  0  0  0  0  0  0  0
    2.6939   -1.6571    0.0000 C   0  0  0  0  0  0  0  0  0  0  0  0
    4.1228   -0.8321    0.0000 C   0  0  0  0  0  0  0  0  0  0  0  0
  1  2  1  0  0  0  0
  3  2  1  0  0  0  0
  3  4  1  0  0  0  0
  4  5  1  0  0  0  0
  6  3  2  0  0  0  0
  7  6  1  0  0  0  0
  8  7  2  0  0  0  0
  8  9  1  0  0  0  0
  9 10  1  0  0  0  0
 10 11  2  0  0  0  0
 12  8  1  0  0  0  0
  2 12  2  0  0  0  0
  1 13  1  0  0  0  0
M  END
> <ChemID>
100264

> <CAS>
93-15-2

> <Original_SMILES>
COc1ccc(CC=C)cc1OC

> <preferred_name>
Methyleugenol

> <dsstox_substance_id>
DTXSID5025607

> <dsstox_compound_id>
DTXCID505607

> <qc_level>
DSSTox_Low

> <Canonical_QSARr>
COC1=CC=C(CC=C)C=C1OC

> <InChI_Code_QSARr>
InChI=1S/C11H14O2/c1-4-5-9-6-7-10(12-2)11(8-9)13-3/h4,6-8H,1,5H2,2-3H3

> <InChI Key_QSARr>
ZYEMGPIYFIJGTP-UHFFFAOYSA-N

> <Salt_Solvent>


> <Salt_Solvent_ID>
0

> <MPID>
100274

> <Tr_1_Tst_0>
0

> <Ready_Biodeg>
1.0

$$$$
Row257
  Mrv171c012251911052D          

 14 14  0  0  0  0            999 V2000
    2.8597   -0.6526    0.0000 C   0  0  0  0  0  0  0  0  0  0  0  0
    2.8597   -1.4776    0.0000 O   0  0  0  0  0  0  0  0  0  0  0  0
    2.1453   -0.2401    0.0000 N   0  0  0  0  0  0  0  0  0  0  0  0
    1.4308   -0.6526    0.0000 C   0  0  0  0  0  0  0  0  0  0  0  0
    0.7163   -0.2401    0.0000 C   0  0  0  0  0  0  0  0  0  0  0  0
    0.0019   -0.6526    0.0000 C   0  0  0  0  0  0  0  0  0  0  0  0
    0.0019   -1.4776    0.0000 C   0  0  0  0  0  0  0  0  0  0  0  0
    0.7163   -1.8901    0.0000 C   0  0  0  0  0  0  0  0  0  0  0  0
    1.4308   -1.4776    0.0000 C   0  0  0  0  0  0  0  0  0  0  0  0
    2.1453   -1.8901    0.0000 C   0  0  0  0  0  0  0  0  0  0  0  0
    3.5742   -0.2401    0.0000 C   0  0  0  0  0  0  0  0  0  0  0  0
    4.2887   -0.6526    0.0000 C   0  0  0  0  0  0  0  0  0  0  0  0
    5.0031   -0.2401    0.0000 O   0  0  0  0  0  0  0  0  0  0  0  0
    4.2887   -1.4776    0.0000 C   0  0  0  0  0  0  0  0  0  0  0  0
  1  2  2  0  0  0  0
  1  3  1  0  0  0  0
  3  4  1  0  0  0  0
  5  4  1  0  0  0  0
  6  5  2  0  0  0  0
  7  6  1  0  0  0  0
  8  7  2  0  0  0  0
  9  8  1  0  0  0  0
  4  9  2  0  0  0  0
  9 10  1  0  0  0  0
  1 11  1  0  0  0  0
 11 12  1  0  0  0  0
 12 13  2  0  0  0  0
 12 14  1  0  0  0  0
M  END
> <ChemID>
100265

> <CAS>
93-68-5

> <Original_SMILES>
CC(=O)CC(=O)Nc1ccccc1C

> <preferred_name>
N-(2-Methylphenyl)-3-oxobutanamide

> <dsstox_substance_id>
DTXSID3026562

> <dsstox_compound_id>
DTXCID206562

> <qc_level>
DSSTox_Low

> <Canonical_QSARr>
CC(=O)CC(=O)NC1C=CC=CC=1C

> <InChI_Code_QSARr>
InChI=1S/C11H13NO2/c1-8-5-3-4-6-10(8)12-11(14)7-9(2)13/h3-6H,7H2,1-2H3,(H,12,14)

> <InChI Key_QSARr>
TVZIWRMELPWPPR-UHFFFAOYSA-N

> <Salt_Solvent>


> <Salt_Solvent_ID>
0

> <MPID>
100275

> <Tr_1_Tst_0>
1

> <Ready_Biodeg>
1.0

$$$$
Row258
  Mrv171c012251911052D          

 15 15  0  0  0  0            999 V2000
    3.4232   -1.8002    0.0000 Cl  0  0  0  0  0  0  0  0  0  0  0  0
    2.7087   -1.3877    0.0000 C   0  0  0  0  0  0  0  0  0  0  0  0
    2.7087   -0.5627    0.0000 C   0  0  0  0  0  0  0  0  0  0  0  0
    1.9943   -0.1502    0.0000 C   0  0  0  0  0  0  0  0  0  0  0  0
    1.9943    0.6748    0.0000 Cl  0  0  0  0  0  0  0  0  0  0  0  0
    1.2798   -0.5627    0.0000 C   0  0  0  0  0  0  0  0  0  0  0  0
    0.5653   -0.1502    0.0000 Cl  0  0  0  0  0  0  0  0  0  0  0  0
    1.2798   -1.3877    0.0000 C   0  0  0  0  0  0  0  0  0  0  0  0
    1.9943   -1.8002    0.0000 C   0  0  0  0  0  0  0  0  0  0  0  0
    1.9943   -2.6252    0.0000 O   0  0  0  0  0  0  0  0  0  0  0  0
    2.7087   -3.0377    0.0000 C   0  0  0  0  0  0  0  0  0  0  0  0
    3.4232   -2.6252    0.0000 C   0  0  0  0  0  0  0  0  0  0  0  0
    2.7087   -3.8627    0.0000 C   0  0  0  0  0  0  0  0  0  0  0  0
    3.4232   -4.2752    0.0000 O   0  0  0  0  0  0  0  0  0  0  0  0
    1.9943   -4.2752    0.0000 O   0  0  0  0  0  0  0  0  0  0  0  0
  1  2  1  0  0  0  0
  3  2  1  0  0  0  0
  4  3  2  0  0  0  0
  4  5  1  0  0  0  0
  6  4  1  0  0  0  0
  6  7  1  0  0  0  0
  8  6  2  0  0  0  0
  9  8  1  0  0  0  0
  2  9  2  0  0  0  0
  9 10  1  0  0  0  0
 10 11  1  0  0  0  0
 11 12  1  0  0  0  0
 11 13  1  0  0  0  0
 13 14  1  0  0  0  0
 13 15  2  0  0  0  0
M  END
> <ChemID>
100266

> <CAS>
93-72-1

> <Original_SMILES>
CC(Oc1cc(Cl)c(Cl)cc1Cl)C(O)=O

> <preferred_name>
2-(2,4,5-Trichlorophenoxy)propionic acid

> <dsstox_substance_id>
DTXSID0021387

> <dsstox_compound_id>
DTXCID901387

> <qc_level>
DSSTox_High

> <Canonical_QSARr>
CC(OC1C=C(Cl)C(Cl)=CC=1Cl)C(O)=O

> <InChI_Code_QSARr>
InChI=1S/C9H7Cl3O3/c1-4(9(13)14)15-8-3-6(11)5(10)2-7(8)12/h2-4H,1H3,(H,13,14)

> <InChI Key_QSARr>
ZLSWBLPERHFHIS-UHFFFAOYSA-N

> <Salt_Solvent>


> <Salt_Solvent_ID>
0

> <MPID>
100276

> <Tr_1_Tst_0>
1

> <Ready_Biodeg>
0.0

$$$$
Row259
  Mrv171c012251911052D          

 26 25  0  0  0  0            999 V2000
   13.5314    5.3730    0.0000 N   0  0  0  0  0  0  0  0  0  0  0  0
   12.8624    4.8902    0.0000 C   0  0  0  0  0  0  0  0  0  0  0  0
   12.1098    5.2282    0.0000 C   0  0  0  0  0  0  0  0  0  0  0  0
   11.4408    4.7454    0.0000 O   0  0  0  0  0  0  0  0  0  0  0  0
   13.4477    6.1937    0.0000 C   0  0  0  0  0  0  0  0  0  0  0  0
   12.6951    6.5317    0.0000 C   0  0  0  0  0  0  0  0  0  0  0  0
   12.6115    7.3525    0.0000 O   0  0  0  0  0  0  0  0  0  0  0  0
   14.2840    5.0350    0.0000 C   0  0  0  0  0  0  0  0  0  0  0  0
   14.3676    4.2143    0.0000 O   0  0  0  0  0  0  0  0  0  0  0  0
   14.9529    5.5178    0.0000 C   0  0  0  0  0  0  0  0  0  0  0  0
   15.7055    5.1799    0.0000 C   0  0  0  0  0  0  0  0  0  0  0  0
   16.3745    5.6627    0.0000 C   0  0  0  0  0  0  0  0  0  0  0  0
   17.1271    5.3247    0.0000 C   0  0  0  0  0  0  0  0  0  0  0  0
   17.7961    5.8075    0.0000 C   0  0  0  0  0  0  0  0  0  0  0  0
   18.5487    5.4696    0.0000 C   0  0  0  0  0  0  0  0  0  0  0  0
   19.2177    5.9524    0.0000 C   0  0  0  0  0  0  0  0  0  0  0  0
   19.9703    5.6144    0.0000 C   0  0  0  0  0  0  0  0  0  0  0  0
   20.6393    6.0972    0.0000 C   0  0  0  0  0  0  0  0  0  0  0  0
   21.3919    5.7592    0.0000 C   0  0  0  0  0  0  0  0  0  0  0  0
   22.0608    6.2420    0.0000 C   0  0  0  0  0  0  0  0  0  0  0  0
   22.8134    5.9041    0.0000 C   0  0  0  0  0  0  0  0  0  0  0  0
   23.4824    6.3869    0.0000 C   0  0  0  0  0  0  0  0  0  0  0  0
   24.2350    6.0489    0.0000 C   0  0  0  0  0  0  0  0  0  0  0  0
   24.9040    6.5317    0.0000 C   0  0  0  0  0  0  0  0  0  0  0  0
   25.6566    6.1937    0.0000 C   0  0  0  0  0  0  0  0  0  0  0  0
   26.3256    6.6765    0.0000 C   0  0  0  0  0  0  0  0  0  0  0  0
  1  2  1  0  0  0  0
  2  3  1  0  0  0  0
  3  4  1  0  0  0  0
  1  5  1  0  0  0  0
  5  6  1  0  0  0  0
  6  7  1  0  0  0  0
  1  8  1  0  0  0  0
  8  9  2  0  0  0  0
  8 10  1  0  0  0  0
 10 11  1  0  0  0  0
 11 12  1  0  0  0  0
 12 13  1  0  0  0  0
 13 14  1  0  0  0  0
 14 15  1  0  0  0  0
 15 16  1  0  0  0  0
 16 17  1  0  0  0  0
 17 18  1  0  0  0  0
 18 19  1  0  0  0  0
 19 20  1  0  0  0  0
 20 21  1  0  0  0  0
 21 22  1  0  0  0  0
 22 23  1  0  0  0  0
 23 24  1  0  0  0  0
 24 25  1  0  0  0  0
 25 26  1  0  0  0  0
M  END
> <ChemID>
100267

> <CAS>
93-82-3

> <Original_SMILES>
CCCCCCCCCCCCCCCCCC(=O)N(CCO)CCO

> <preferred_name>
Octadecanamide, N,N-bis(2-hydroxyethyl)-

> <dsstox_substance_id>
DTXSID4059091

> <dsstox_compound_id>
DTXCID5048841

> <qc_level>
Public_High

> <Canonical_QSARr>
CCCCCCCCCCCCCCCCCC(=O)N(CCO)CCO

> <InChI_Code_QSARr>
InChI=1S/C22H45NO3/c1-2-3-4-5-6-7-8-9-10-11-12-13-14-15-16-17-22(26)23(18-20-24)19-21-25/h24-25H,2-21H2,1H3

> <InChI Key_QSARr>
XGZOMURMPLSSKQ-UHFFFAOYSA-N

> <Salt_Solvent>


> <Salt_Solvent_ID>
0

> <MPID>
100277

> <Tr_1_Tst_0>
1

> <Ready_Biodeg>
1.0

$$$$
Row260
  Mrv171c012251911052D          

 12 12  0  0  0  0            999 V2000
    2.9918   -2.1131    0.0000 C   0  0  0  0  0  0  0  0  0  0  0  0
    2.2773   -1.7006    0.0000 C   0  0  0  0  0  0  0  0  0  0  0  0
    2.2773   -0.8756    0.0000 C   0  0  0  0  0  0  0  0  0  0  0  0
    1.5628   -0.4631    0.0000 C   0  0  0  0  0  0  0  0  0  0  0  0
    1.5628    0.3619    0.0000 C   0  0  0  0  0  0  0  0  0  0  0  0
    0.8484    0.7744    0.0000 C   0  0  0  0  0  0  0  0  0  0  0  0
    2.2773    0.7744    0.0000 O   0  0  0  0  0  0  0  0  0  0  0  0
    2.9918   -0.4631    0.0000 O   0  0  0  0  0  0  0  0  0  0  0  0
    1.5628   -2.1131    0.0000 C   0  0  0  0  0  0  0  0  0  0  0  0
    1.5628   -2.9381    0.0000 C   0  0  0  0  0  0  0  0  0  0  0  0
    2.2773   -3.3506    0.0000 C   0  0  0  0  0  0  0  0  0  0  0  0
    2.9918   -2.9381    0.0000 C   0  0  0  0  0  0  0  0  0  0  0  0
  2  1  1  0  0  0  0
  2  3  1  0  0  0  0
  3  4  1  0  0  0  0
  4  5  1  0  0  0  0
  5  6  1  0  0  0  0
  5  7  2  0  0  0  0
  3  8  2  0  0  0  0
  9  2  2  0  0  0  0
 10  9  1  0  0  0  0
 11 10  2  0  0  0  0
 12 11  1  0  0  0  0
  1 12  2  0  0  0  0
M  END
> <ChemID>
100268

> <CAS>
93-91-4

> <Original_SMILES>
CC(=O)CC(=O)c1ccccc1

> <preferred_name>
1-Benzoylacetone

> <dsstox_substance_id>
DTXSID3021803

> <dsstox_compound_id>
DTXCID901803

> <qc_level>
DSSTox_Low

> <Canonical_QSARr>
CC(=O)CC(=O)C1C=CC=CC=1

> <InChI_Code_QSARr>
InChI=1S/C10H10O2/c1-8(11)7-10(12)9-5-3-2-4-6-9/h2-6H,7H2,1H3

> <InChI Key_QSARr>
CVBUKMMMRLOKQR-UHFFFAOYSA-N

> <Salt_Solvent>


> <Salt_Solvent_ID>
0

> <MPID>
100278

> <Tr_1_Tst_0>
0

> <Ready_Biodeg>
1.0

$$$$
Row261
  Mrv171c012251911052D          

 18 19  0  0  0  0            999 V2000
    1.6122   -0.9152    0.0000 O   0  0  0  0  0  0  0  0  0  0  0  0
    1.6122   -1.7402    0.0000 C   0  0  0  0  0  0  0  0  0  0  0  0
    2.3267   -2.1527    0.0000 O   0  0  0  0  0  0  0  0  0  0  0  0
    3.0411   -1.7402    0.0000 O   0  0  0  0  0  0  0  0  0  0  0  0
    3.7556   -2.1527    0.0000 C   0  0  0  0  0  0  0  0  0  0  0  0
    4.4701   -1.7402    0.0000 C   0  0  0  0  0  0  0  0  0  0  0  0
    5.1846   -2.1527    0.0000 C   0  0  0  0  0  0  0  0  0  0  0  0
    5.8990   -1.7402    0.0000 C   0  0  0  0  0  0  0  0  0  0  0  0
    5.8990   -0.9152    0.0000 C   0  0  0  0  0  0  0  0  0  0  0  0
    5.1846   -0.5027    0.0000 C   0  0  0  0  0  0  0  0  0  0  0  0
    4.4701   -0.9152    0.0000 C   0  0  0  0  0  0  0  0  0  0  0  0
    3.7556   -2.9777    0.0000 O   0  0  0  0  0  0  0  0  0  0  0  0
    0.8977   -2.1527    0.0000 C   0  0  0  0  0  0  0  0  0  0  0  0
    0.1833   -1.7402    0.0000 C   0  0  0  0  0  0  0  0  0  0  0  0
   -0.5312   -2.1527    0.0000 C   0  0  0  0  0  0  0  0  0  0  0  0
   -0.5312   -2.9777    0.0000 C   0  0  0  0  0  0  0  0  0  0  0  0
    0.1833   -3.3902    0.0000 C   0  0  0  0  0  0  0  0  0  0  0  0
    0.8977   -2.9777    0.0000 C   0  0  0  0  0  0  0  0  0  0  0  0
  1  2  2  0  0  0  0
  2  3  1  0  0  0  0
  3  4  1  0  0  0  0
  4  5  1  0  0  0  0
  5  6  1  0  0  0  0
  7  6  1  0  0  0  0
  8  7  2  0  0  0  0
  9  8  1  0  0  0  0
 10  9  2  0  0  0  0
 11 10  1  0  0  0  0
  6 11  2  0  0  0  0
  5 12  2  0  0  0  0
  2 13  1  0  0  0  0
 14 13  1  0  0  0  0
 15 14  2  0  0  0  0
 16 15  1  0  0  0  0
 17 16  2  0  0  0  0
 18 17  1  0  0  0  0
 13 18  2  0  0  0  0
M  END
> <ChemID>
100269

> <CAS>
94-36-0

> <Original_SMILES>
O=C(OOC(=O)c1ccccc1)c1ccccc1

> <preferred_name>
Benzoyl peroxide

> <dsstox_substance_id>
DTXSID6024591

> <dsstox_compound_id>
DTXCID001072

> <qc_level>
DSSTox_Low

> <Canonical_QSARr>
O=C(OOC(=O)C1C=CC=CC=1)C1C=CC=CC=1

> <InChI_Code_QSARr>
InChI=1S/C14H10O4/c15-13(11-7-3-1-4-8-11)17-18-14(16)12-9-5-2-6-10-12/h1-10H

> <InChI Key_QSARr>
OMPJBNCRMGITSC-UHFFFAOYSA-N

> <Salt_Solvent>


> <Salt_Solvent_ID>
0

> <MPID>
100279

> <Tr_1_Tst_0>
1

> <Ready_Biodeg>
1.0

$$$$
Row262
  Mrv171c012251911052D          

 12 13  0  0  0  0            999 V2000
    3.3684   -2.5292    0.0000 O   0  0  0  0  0  0  0  0  0  0  0  0
    3.3684   -1.7042    0.0000 N   0  3  0  0  0  0  0  0  0  0  0  0
    4.0828   -1.2917    0.0000 O   0  5  0  0  0  0  0  0  0  0  0  0
    2.6539   -1.2917    0.0000 C   0  0  0  0  0  0  0  0  0  0  0  0
    2.6539   -0.4667    0.0000 C   0  0  0  0  0  0  0  0  0  0  0  0
    1.9394   -0.0542    0.0000 C   0  0  0  0  0  0  0  0  0  0  0  0
    1.2249   -0.4667    0.0000 C   0  0  0  0  0  0  0  0  0  0  0  0
    0.4403   -0.2118    0.0000 N   0  0  0  0  0  0  0  0  0  0  0  0
   -0.0446   -0.8792    0.0000 C   0  0  0  0  0  0  0  0  0  0  0  0
    0.4403   -1.5467    0.0000 N   0  0  0  0  0  0  0  0  0  0  0  0
    1.2249   -1.2917    0.0000 C   0  0  0  0  0  0  0  0  0  0  0  0
    1.9394   -1.7042    0.0000 C   0  0  0  0  0  0  0  0  0  0  0  0
  1  2  2  0  0  0  0
  2  3  1  0  0  0  0
  2  4  1  0  0  0  0
  5  4  1  0  0  0  0
  6  5  2  0  0  0  0
  7  6  1  0  0  0  0
  7  8  1  0  0  0  0
  8  9  1  0  0  0  0
  9 10  2  0  0  0  0
 10 11  1  0  0  0  0
 11  7  2  0  0  0  0
 12 11  1  0  0  0  0
  4 12  2  0  0  0  0
M  CHG  2   2   1   3  -1
M  END
> <ChemID>
100270

> <CAS>
94-52-0

> <Original_SMILES>
[O-][N+](=O)c1cc2[n]c[nH]c2cc1

> <preferred_name>
6-Nitrobenzimidazole

> <dsstox_substance_id>
DTXSID8020965

> <dsstox_compound_id>
DTXCID60965

> <qc_level>
DSSTox_Low

> <Canonical_QSARr>
[O-][N+](=O)C1=CC2N=CNC=2C=C1

> <InChI_Code_QSARr>
InChI=1S/C7H5N3O2/c11-10(12)5-1-2-6-7(3-5)9-4-8-6/h1-4H,(H,8,9)

> <InChI Key_QSARr>
XPAZGLFMMUODDK-UHFFFAOYSA-N

> <Salt_Solvent>


> <Salt_Solvent_ID>
0

> <MPID>
100280

> <Tr_1_Tst_0>
1

> <Ready_Biodeg>
0.0

$$$$
Row263
  Mrv171c012251911052D          

 13 13  0  0  0  0            999 V2000
    3.0176   -3.3906    0.0000 C   0  0  0  0  0  0  0  0  0  0  0  0
    3.0176   -2.5656    0.0000 C   0  0  0  0  0  0  0  0  0  0  0  0
    2.3031   -2.1531    0.0000 O   0  0  0  0  0  0  0  0  0  0  0  0
    2.3031   -1.3281    0.0000 C   0  0  0  0  0  0  0  0  0  0  0  0
    3.0176   -0.9156    0.0000 C   0  0  0  0  0  0  0  0  0  0  0  0
    3.0176   -0.0906    0.0000 C   0  0  0  0  0  0  0  0  0  0  0  0
    2.3031    0.3219    0.0000 C   0  0  0  0  0  0  0  0  0  0  0  0
    2.3031    1.1469    0.0000 Cl  0  0  0  0  0  0  0  0  0  0  0  0
    1.5887   -0.0906    0.0000 C   0  0  0  0  0  0  0  0  0  0  0  0
    1.5887   -0.9156    0.0000 C   0  0  0  0  0  0  0  0  0  0  0  0
    0.8742   -1.3281    0.0000 Cl  0  0  0  0  0  0  0  0  0  0  0  0
    3.7321   -3.8031    0.0000 O   0  0  0  0  0  0  0  0  0  0  0  0
    2.3031   -3.8031    0.0000 O   0  0  0  0  0  0  0  0  0  0  0  0
  1  2  1  0  0  0  0
  2  3  1  0  0  0  0
  3  4  1  0  0  0  0
  5  4  1  0  0  0  0
  6  5  2  0  0  0  0
  7  6  1  0  0  0  0
  7  8  1  0  0  0  0
  9  7  2  0  0  0  0
 10  9  1  0  0  0  0
  4 10  2  0  0  0  0
 10 11  1  0  0  0  0
  1 12  1  0  0  0  0
  1 13  2  0  0  0  0
M  END
> <ChemID>
100271

> <CAS>
94-75-7

> <Original_SMILES>
OC(=O)COc1ccc(Cl)cc1Cl

> <preferred_name>
2,4-Dichlorophenoxyacetic acid

> <dsstox_substance_id>
DTXSID0020442

> <dsstox_compound_id>
DTXCID80442

> <qc_level>
DSSTox_High

> <Canonical_QSARr>
OC(=O)COC1C=CC(Cl)=CC=1Cl

> <InChI_Code_QSARr>
InChI=1S/C8H6Cl2O3/c9-5-1-2-7(6(10)3-5)13-4-8(11)12/h1-3H,4H2,(H,11,12)

> <InChI Key_QSARr>
OVSKIKFHRZPJSS-UHFFFAOYSA-N

> <Salt_Solvent>


> <Salt_Solvent_ID>
0

> <MPID>
100281

> <Tr_1_Tst_0>
1

> <Ready_Biodeg>
0.0

$$$$
Row264
  Mrv171c012251911052D          

  9 10  0  0  0  0            999 V2000
    2.6971   -0.4105    0.0000 C   0  0  0  0  0  0  0  0  0  0  0  0
    1.9827    0.0020    0.0000 C   0  0  0  0  0  0  0  0  0  0  0  0
    1.2682   -0.4105    0.0000 C   0  0  0  0  0  0  0  0  0  0  0  0
    0.4836   -0.1556    0.0000 S   0  0  0  0  0  0  0  0  0  0  0  0
   -0.0014   -0.8230    0.0000 C   0  0  0  0  0  0  0  0  0  0  0  0
    0.4836   -1.4904    0.0000 N   0  0  0  0  0  0  0  0  0  0  0  0
    1.2682   -1.2355    0.0000 C   0  0  0  0  0  0  0  0  0  0  0  0
    1.9827   -1.6480    0.0000 C   0  0  0  0  0  0  0  0  0  0  0  0
    2.6971   -1.2355    0.0000 C   0  0  0  0  0  0  0  0  0  0  0  0
  2  1  1  0  0  0  0
  3  2  2  0  0  0  0
  3  4  1  0  0  0  0
  4  5  1  0  0  0  0
  5  6  2  0  0  0  0
  6  7  1  0  0  0  0
  7  3  1  0  0  0  0
  8  7  2  0  0  0  0
  9  8  1  0  0  0  0
  1  9  2  0  0  0  0
M  END
> <ChemID>
100273

> <CAS>
95-16-9

> <Original_SMILES>
c1[n]c2ccccc2[s]1

> <preferred_name>
Benzothiazole

> <dsstox_substance_id>
DTXSID7024586

> <dsstox_compound_id>
DTXCID204586

> <qc_level>
DSSTox_Low

> <Canonical_QSARr>
C1=NC2=CC=CC=C2S1

> <InChI_Code_QSARr>
InChI=1S/C7H5NS/c1-2-4-7-6(3-1)8-5-9-7/h1-5H

> <InChI Key_QSARr>
IOJUPLGTWVMSFF-UHFFFAOYSA-N

> <Salt_Solvent>


> <Salt_Solvent_ID>
0

> <MPID>
100282

> <Tr_1_Tst_0>
0

> <Ready_Biodeg>
0.0

$$$$
Row265
  Mrv171c012251911052D          

 17 19  0  0  0  0            999 V2000
    3.9468   -0.7476    0.0000 N   0  0  0  0  0  0  0  0  0  0  0  0
    4.7314   -1.0025    0.0000 C   0  0  0  0  0  0  0  0  0  0  0  0
    5.4459   -0.5900    0.0000 C   0  0  0  0  0  0  0  0  0  0  0  0
    6.1603   -1.0025    0.0000 C   0  0  0  0  0  0  0  0  0  0  0  0
    6.1603   -1.8275    0.0000 C   0  0  0  0  0  0  0  0  0  0  0  0
    5.4459   -2.2400    0.0000 C   0  0  0  0  0  0  0  0  0  0  0  0
    4.7314   -1.8275    0.0000 C   0  0  0  0  0  0  0  0  0  0  0  0
    3.9468   -2.0824    0.0000 S   0  0  0  0  0  0  0  0  0  0  0  0
    3.4618   -1.4150    0.0000 C   0  0  0  0  0  0  0  0  0  0  0  0
    2.6368   -1.4150    0.0000 S   0  0  0  0  0  0  0  0  0  0  0  0
    2.2243   -0.7005    0.0000 N   0  0  0  0  0  0  0  0  0  0  0  0
    1.3993   -0.7005    0.0000 C   0  0  0  0  0  0  0  0  0  0  0  0
    0.9868    0.0140    0.0000 C   0  0  0  0  0  0  0  0  0  0  0  0
    0.1618    0.0140    0.0000 C   0  0  0  0  0  0  0  0  0  0  0  0
   -0.2507   -0.7005    0.0000 C   0  0  0  0  0  0  0  0  0  0  0  0
    0.1618   -1.4150    0.0000 C   0  0  0  0  0  0  0  0  0  0  0  0
    0.9868   -1.4150    0.0000 C   0  0  0  0  0  0  0  0  0  0  0  0
  2  1  1  0  0  0  0
  2  3  1  0  0  0  0
  3  4  2  0  0  0  0
  4  5  1  0  0  0  0
  5  6  2  0  0  0  0
  6  7  1  0  0  0  0
  7  2  2  0  0  0  0
  8  7  1  0  0  0  0
  9  8  1  0  0  0  0
  1  9  2  0  0  0  0
  9 10  1  0  0  0  0
 10 11  1  0  0  0  0
 11 12  1  0  0  0  0
 13 12  1  0  0  0  0
 14 13  1  0  0  0  0
 15 14  1  0  0  0  0
 16 15  1  0  0  0  0
 17 16  1  0  0  0  0
 12 17  1  0  0  0  0
M  END
> <ChemID>
100274

> <CAS>
95-33-0

> <Original_SMILES>
C1CCCCC1NSc1[n]c2ccccc2[s]1

> <preferred_name>
N-Cyclohexyl-2-benzothiazolesulfenamide

> <dsstox_substance_id>
DTXSID5020360

> <dsstox_compound_id>
DTXCID50360

> <qc_level>
DSSTox_Low

> <Canonical_QSARr>
C1CCCCC1NSC1=NC2C=CC=CC=2S1

> <InChI_Code_QSARr>
InChI=1S/C13H16N2S2/c1-2-6-10(7-3-1)15-17-13-14-11-8-4-5-9-12(11)16-13/h4-5,8-10,15H,1-3,6-7H2

> <InChI Key_QSARr>
DEQZTKGFXNUBJL-UHFFFAOYSA-N

> <Salt_Solvent>


> <Salt_Solvent_ID>
0

> <MPID>
100283

> <Tr_1_Tst_0>
1

> <Ready_Biodeg>
0.0

$$$$
Row266
  Mrv171c012251911052D          

  8  8  0  0  0  0            999 V2000
    0.3589   -2.0602    0.0000 C   0  0  0  0  0  0  0  0  0  0  0  0
    1.0734   -2.4727    0.0000 C   0  0  0  0  0  0  0  0  0  0  0  0
    1.7879   -2.0602    0.0000 C   0  0  0  0  0  0  0  0  0  0  0  0
    1.7879   -1.2352    0.0000 C   0  0  0  0  0  0  0  0  0  0  0  0
    1.0734   -0.8227    0.0000 C   0  0  0  0  0  0  0  0  0  0  0  0
    1.0734    0.0023    0.0000 C   0  0  0  0  0  0  0  0  0  0  0  0
    0.3589   -1.2352    0.0000 C   0  0  0  0  0  0  0  0  0  0  0  0
   -0.3556   -0.8227    0.0000 C   0  0  0  0  0  0  0  0  0  0  0  0
  2  1  2  0  0  0  0
  3  2  1  0  0  0  0
  4  3  2  0  0  0  0
  5  4  1  0  0  0  0
  5  6  1  0  0  0  0
  7  5  2  0  0  0  0
  1  7  1  0  0  0  0
  7  8  1  0  0  0  0
M  END
> <ChemID>
100275

> <CAS>
95-47-6

> <Original_SMILES>
Cc1ccccc1C

> <preferred_name>
o-Xylene

> <dsstox_substance_id>
DTXSID3021807

> <dsstox_compound_id>
DTXCID501807

> <qc_level>
DSSTox_Low

> <Canonical_QSARr>
CC1C=CC=CC=1C

> <InChI_Code_QSARr>
InChI=1S/C8H10/c1-7-5-3-4-6-8(7)2/h3-6H,1-2H3

> <InChI Key_QSARr>
CTQNGGLPUBDAKN-UHFFFAOYSA-N

> <Salt_Solvent>


> <Salt_Solvent_ID>
0

> <MPID>
100284

> <Tr_1_Tst_0>
1

> <Ready_Biodeg>
1.0

$$$$
Row267
  Mrv171c012251911052D          

  8  8  0  0  0  0            999 V2000
    0.0913   -0.7358    0.0000 O   0  0  0  0  0  0  0  0  0  0  0  0
    0.8057   -1.1483    0.0000 C   0  0  0  0  0  0  0  0  0  0  0  0
    0.8057   -1.9733    0.0000 C   0  0  0  0  0  0  0  0  0  0  0  0
    1.5202   -2.3858    0.0000 C   0  0  0  0  0  0  0  0  0  0  0  0
    2.2347   -1.9733    0.0000 C   0  0  0  0  0  0  0  0  0  0  0  0
    2.2347   -1.1483    0.0000 C   0  0  0  0  0  0  0  0  0  0  0  0
    1.5202   -0.7358    0.0000 C   0  0  0  0  0  0  0  0  0  0  0  0
    1.5202    0.0892    0.0000 C   0  0  0  0  0  0  0  0  0  0  0  0
  1  2  1  0  0  0  0
  3  2  1  0  0  0  0
  4  3  2  0  0  0  0
  5  4  1  0  0  0  0
  6  5  2  0  0  0  0
  7  6  1  0  0  0  0
  2  7  2  0  0  0  0
  7  8  1  0  0  0  0
M  END
> <ChemID>
100276

> <CAS>
95-48-7

> <Original_SMILES>
Cc1ccccc1O

> <preferred_name>
o-Cresol

> <dsstox_substance_id>
DTXSID8021808

> <dsstox_compound_id>
DTXCID901808

> <qc_level>
DSSTox_Low

> <Canonical_QSARr>
CC1C=CC=CC=1O

> <InChI_Code_QSARr>
InChI=1S/C7H8O/c1-6-4-2-3-5-7(6)8/h2-5,8H,1H3

> <InChI Key_QSARr>
QWVGKYWNOKOFNN-UHFFFAOYSA-N

> <Salt_Solvent>


> <Salt_Solvent_ID>
0

> <MPID>
100285

> <Tr_1_Tst_0>
1

> <Ready_Biodeg>
1.0

$$$$
Row268
  Mrv171c012251911052D          

  8  8  0  0  0  0            999 V2000
    1.7860   -1.2382    0.0000 C   0  0  0  0  0  0  0  0  0  0  0  0
    2.5005   -0.8257    0.0000 C   0  0  0  0  0  0  0  0  0  0  0  0
    1.0716   -0.8257    0.0000 C   0  0  0  0  0  0  0  0  0  0  0  0
    1.0716   -0.0007    0.0000 Cl  0  0  0  0  0  0  0  0  0  0  0  0
    0.3571   -1.2382    0.0000 C   0  0  0  0  0  0  0  0  0  0  0  0
    0.3571   -2.0632    0.0000 C   0  0  0  0  0  0  0  0  0  0  0  0
    1.0716   -2.4757    0.0000 C   0  0  0  0  0  0  0  0  0  0  0  0
    1.7860   -2.0632    0.0000 C   0  0  0  0  0  0  0  0  0  0  0  0
  1  2  1  0  0  0  0
  3  1  2  0  0  0  0
  3  4  1  0  0  0  0
  5  3  1  0  0  0  0
  6  5  2  0  0  0  0
  7  6  1  0  0  0  0
  8  7  2  0  0  0  0
  1  8  1  0  0  0  0
M  END
> <ChemID>
100277

> <CAS>
95-49-8

> <Original_SMILES>
Cc1ccccc1Cl

> <preferred_name>
2-Chlorotoluene

> <dsstox_substance_id>
DTXSID8023977

> <dsstox_compound_id>
DTXCID003977

> <qc_level>
DSSTox_Low

> <Canonical_QSARr>
CC1C=CC=CC=1Cl

> <InChI_Code_QSARr>
InChI=1S/C7H7Cl/c1-6-4-2-3-5-7(6)8/h2-5H,1H3

> <InChI Key_QSARr>
IBSQPLPBRSHTTG-UHFFFAOYSA-N

> <Salt_Solvent>


> <Salt_Solvent_ID>
0

> <MPID>
100286

> <Tr_1_Tst_0>
0

> <Ready_Biodeg>
0.0

$$$$
Row269
  Mrv171c012251911052D          

  8  8  0  0  0  0            999 V2000
    0.0913   -0.7358    0.0000 Cl  0  0  0  0  0  0  0  0  0  0  0  0
    0.8057   -1.1483    0.0000 C   0  0  0  0  0  0  0  0  0  0  0  0
    0.8057   -1.9733    0.0000 C   0  0  0  0  0  0  0  0  0  0  0  0
    1.5202   -2.3858    0.0000 C   0  0  0  0  0  0  0  0  0  0  0  0
    2.2347   -1.9733    0.0000 C   0  0  0  0  0  0  0  0  0  0  0  0
    2.2347   -1.1483    0.0000 C   0  0  0  0  0  0  0  0  0  0  0  0
    1.5202   -0.7358    0.0000 C   0  0  0  0  0  0  0  0  0  0  0  0
    1.5202    0.0892    0.0000 Cl  0  0  0  0  0  0  0  0  0  0  0  0
  1  2  1  0  0  0  0
  3  2  1  0  0  0  0
  4  3  2  0  0  0  0
  5  4  1  0  0  0  0
  6  5  2  0  0  0  0
  7  6  1  0  0  0  0
  2  7  2  0  0  0  0
  7  8  1  0  0  0  0
M  END
> <ChemID>
100278

> <CAS>
95-50-1

> <Original_SMILES>
Clc1ccccc1Cl

> <preferred_name>
1,2-Dichlorobenzene

> <dsstox_substance_id>
DTXSID6020430

> <dsstox_compound_id>
DTXCID00430

> <qc_level>
DSSTox_Low

> <Canonical_QSARr>
ClC1C=CC=CC=1Cl

> <InChI_Code_QSARr>
InChI=1S/C6H4Cl2/c7-5-3-1-2-4-6(5)8/h1-4H

> <InChI Key_QSARr>
RFFLAFLAYFXFSW-UHFFFAOYSA-N

> <Salt_Solvent>


> <Salt_Solvent_ID>
0

> <MPID>
100287

> <Tr_1_Tst_0>
1

> <Ready_Biodeg>
0.0

$$$$
Row270
  Mrv171c012251911052D          

  8  8  0  0  0  0            999 V2000
    0.0913   -0.7358    0.0000 N   0  0  0  0  0  0  0  0  0  0  0  0
    0.8057   -1.1483    0.0000 C   0  0  0  0  0  0  0  0  0  0  0  0
    0.8057   -1.9733    0.0000 C   0  0  0  0  0  0  0  0  0  0  0  0
    1.5202   -2.3858    0.0000 C   0  0  0  0  0  0  0  0  0  0  0  0
    2.2347   -1.9733    0.0000 C   0  0  0  0  0  0  0  0  0  0  0  0
    2.2347   -1.1483    0.0000 C   0  0  0  0  0  0  0  0  0  0  0  0
    1.5202   -0.7358    0.0000 C   0  0  0  0  0  0  0  0  0  0  0  0
    1.5202    0.0892    0.0000 Cl  0  0  0  0  0  0  0  0  0  0  0  0
  1  2  1  0  0  0  0
  3  2  1  0  0  0  0
  4  3  2  0  0  0  0
  5  4  1  0  0  0  0
  6  5  2  0  0  0  0
  7  6  1  0  0  0  0
  2  7  2  0  0  0  0
  7  8  1  0  0  0  0
M  END
> <ChemID>
100279

> <CAS>
95-51-2

> <Original_SMILES>
Nc1ccccc1Cl

> <preferred_name>
2-Chloroaniline

> <dsstox_substance_id>
DTXSID2021810

> <dsstox_compound_id>
DTXCID001810

> <qc_level>
DSSTox_Low

> <Canonical_QSARr>
NC1C=CC=CC=1Cl

> <InChI_Code_QSARr>
InChI=1S/C6H6ClN/c7-5-3-1-2-4-6(5)8/h1-4H,8H2

> <InChI Key_QSARr>
AKCRQHGQIJBRMN-UHFFFAOYSA-N

> <Salt_Solvent>


> <Salt_Solvent_ID>
0

> <MPID>
100288

> <Tr_1_Tst_0>
1

> <Ready_Biodeg>
0.0

$$$$
Row271
  Mrv171c012251911052D          

  8  8  0  0  0  0            999 V2000
    0.0913   -0.7358    0.0000 N   0  0  0  0  0  0  0  0  0  0  0  0
    0.8057   -1.1483    0.0000 C   0  0  0  0  0  0  0  0  0  0  0  0
    0.8057   -1.9733    0.0000 C   0  0  0  0  0  0  0  0  0  0  0  0
    1.5202   -2.3858    0.0000 C   0  0  0  0  0  0  0  0  0  0  0  0
    2.2347   -1.9733    0.0000 C   0  0  0  0  0  0  0  0  0  0  0  0
    2.2347   -1.1483    0.0000 C   0  0  0  0  0  0  0  0  0  0  0  0
    1.5202   -0.7358    0.0000 C   0  0  0  0  0  0  0  0  0  0  0  0
    1.5202    0.0892    0.0000 C   0  0  0  0  0  0  0  0  0  0  0  0
  1  2  1  0  0  0  0
  3  2  1  0  0  0  0
  4  3  2  0  0  0  0
  5  4  1  0  0  0  0
  6  5  2  0  0  0  0
  7  6  1  0  0  0  0
  2  7  2  0  0  0  0
  7  8  1  0  0  0  0
M  END
> <ChemID>
100280

> <CAS>
95-53-4

> <Original_SMILES>
Cc1ccccc1N

> <preferred_name>
2-Methylaniline

> <dsstox_substance_id>
DTXSID1026164

> <dsstox_compound_id>
DTXCID206164

> <qc_level>
DSSTox_Low

> <Canonical_QSARr>
CC1C=CC=CC=1N

> <InChI_Code_QSARr>
InChI=1S/C7H9N/c1-6-4-2-3-5-7(6)8/h2-5H,8H2,1H3

> <InChI Key_QSARr>
RNVCVTLRINQCPJ-UHFFFAOYSA-N

> <Salt_Solvent>


> <Salt_Solvent_ID>
0

> <MPID>
100289

> <Tr_1_Tst_0>
1

> <Ready_Biodeg>
1.0

$$$$
Row272
  Mrv171c012251911052D          

  8  8  0  0  0  0            999 V2000
    0.0913   -0.7358    0.0000 N   0  0  0  0  0  0  0  0  0  0  0  0
    0.8057   -1.1483    0.0000 C   0  0  0  0  0  0  0  0  0  0  0  0
    0.8057   -1.9733    0.0000 C   0  0  0  0  0  0  0  0  0  0  0  0
    1.5202   -2.3858    0.0000 C   0  0  0  0  0  0  0  0  0  0  0  0
    2.2347   -1.9733    0.0000 C   0  0  0  0  0  0  0  0  0  0  0  0
    2.2347   -1.1483    0.0000 C   0  0  0  0  0  0  0  0  0  0  0  0
    1.5202   -0.7358    0.0000 C   0  0  0  0  0  0  0  0  0  0  0  0
    1.5202    0.0892    0.0000 N   0  0  0  0  0  0  0  0  0  0  0  0
  1  2  1  0  0  0  0
  3  2  1  0  0  0  0
  4  3  2  0  0  0  0
  5  4  1  0  0  0  0
  6  5  2  0  0  0  0
  7  6  1  0  0  0  0
  2  7  2  0  0  0  0
  7  8  1  0  0  0  0
M  END
> <ChemID>
100281

> <CAS>
95-54-5

> <Original_SMILES>
Nc1ccccc1N

> <preferred_name>
1,2-Phenylenediamine

> <dsstox_substance_id>
DTXSID3025881

> <dsstox_compound_id>
DTXCID905881

> <qc_level>
DSSTox_Low

> <Canonical_QSARr>
NC1C=CC=CC=1N

> <InChI_Code_QSARr>
InChI=1S/C6H8N2/c7-5-3-1-2-4-6(5)8/h1-4H,7-8H2

> <InChI Key_QSARr>
GEYOCULIXLDCMW-UHFFFAOYSA-N

> <Salt_Solvent>


> <Salt_Solvent_ID>
0

> <MPID>
100290

> <Tr_1_Tst_0>
0

> <Ready_Biodeg>
0.0

$$$$
Row273
  Mrv171c012251911052D          

  8  8  0  0  0  0            999 V2000
    0.0913   -0.7358    0.0000 O   0  0  0  0  0  0  0  0  0  0  0  0
    0.8057   -1.1483    0.0000 C   0  0  0  0  0  0  0  0  0  0  0  0
    0.8057   -1.9733    0.0000 C   0  0  0  0  0  0  0  0  0  0  0  0
    1.5202   -2.3858    0.0000 C   0  0  0  0  0  0  0  0  0  0  0  0
    2.2347   -1.9733    0.0000 C   0  0  0  0  0  0  0  0  0  0  0  0
    2.2347   -1.1483    0.0000 C   0  0  0  0  0  0  0  0  0  0  0  0
    1.5202   -0.7358    0.0000 C   0  0  0  0  0  0  0  0  0  0  0  0
    1.5202    0.0892    0.0000 N   0  0  0  0  0  0  0  0  0  0  0  0
  1  2  1  0  0  0  0
  3  2  1  0  0  0  0
  4  3  2  0  0  0  0
  5  4  1  0  0  0  0
  6  5  2  0  0  0  0
  7  6  1  0  0  0  0
  2  7  2  0  0  0  0
  7  8  1  0  0  0  0
M  END
> <ChemID>
100282

> <CAS>
95-55-6

> <Original_SMILES>
Nc1ccccc1O

> <preferred_name>
2-Aminophenol

> <dsstox_substance_id>
DTXSID8024498

> <dsstox_compound_id>
DTXCID104498

> <qc_level>
DSSTox_Low

> <Canonical_QSARr>
NC1C=CC=CC=1O

> <InChI_Code_QSARr>
InChI=1S/C6H7NO/c7-5-3-1-2-4-6(5)8/h1-4,8H,7H2

> <InChI Key_QSARr>
CDAWCLOXVUBKRW-UHFFFAOYSA-N

> <Salt_Solvent>


> <Salt_Solvent_ID>
0

> <MPID>
100291

> <Tr_1_Tst_0>
1

> <Ready_Biodeg>
0.0

$$$$
Row274
  Mrv171c012251911052D          

  8  8  0  0  0  0            999 V2000
    1.4296   -1.2347    0.0000 C   0  0  0  0  0  0  0  0  0  0  0  0
    2.1440   -0.8222    0.0000 Br  0  0  0  0  0  0  0  0  0  0  0  0
    0.7151   -0.8222    0.0000 C   0  0  0  0  0  0  0  0  0  0  0  0
    0.7151    0.0028    0.0000 O   0  0  0  0  0  0  0  0  0  0  0  0
    0.0006   -1.2347    0.0000 C   0  0  0  0  0  0  0  0  0  0  0  0
    0.0006   -2.0597    0.0000 C   0  0  0  0  0  0  0  0  0  0  0  0
    0.7151   -2.4722    0.0000 C   0  0  0  0  0  0  0  0  0  0  0  0
    1.4296   -2.0597    0.0000 C   0  0  0  0  0  0  0  0  0  0  0  0
  1  2  1  0  0  0  0
  3  1  2  0  0  0  0
  3  4  1  0  0  0  0
  5  3  1  0  0  0  0
  6  5  2  0  0  0  0
  7  6  1  0  0  0  0
  8  7  2  0  0  0  0
  1  8  1  0  0  0  0
M  END
> <ChemID>
100283

> <CAS>
95-56-7

> <Original_SMILES>
Oc1ccccc1Br

> <preferred_name>
2-Bromophenol

> <dsstox_substance_id>
DTXSID8052641

> <dsstox_compound_id>
DTXCID5031214

> <qc_level>
DSSTox_Low

> <Canonical_QSARr>
OC1C=CC=CC=1Br

> <InChI_Code_QSARr>
InChI=1S/C6H5BrO/c7-5-3-1-2-4-6(5)8/h1-4,8H

> <InChI Key_QSARr>
VADKRMSMGWJZCF-UHFFFAOYSA-N

> <Salt_Solvent>


> <Salt_Solvent_ID>
0

> <MPID>
100292

> <Tr_1_Tst_0>
1

> <Ready_Biodeg>
0.0

$$$$
Row275
  Mrv171c012251911052D          

  8  8  0  0  0  0            999 V2000
    2.3863   -0.7358    0.0000 O   0  0  0  0  0  0  0  0  0  0  0  0
    1.6718   -1.1483    0.0000 C   0  0  0  0  0  0  0  0  0  0  0  0
    0.9573   -0.7358    0.0000 C   0  0  0  0  0  0  0  0  0  0  0  0
    0.9573    0.0892    0.0000 Cl  0  0  0  0  0  0  0  0  0  0  0  0
    0.2429   -1.1483    0.0000 C   0  0  0  0  0  0  0  0  0  0  0  0
    0.2429   -1.9733    0.0000 C   0  0  0  0  0  0  0  0  0  0  0  0
    0.9573   -2.3858    0.0000 C   0  0  0  0  0  0  0  0  0  0  0  0
    1.6718   -1.9733    0.0000 C   0  0  0  0  0  0  0  0  0  0  0  0
  1  2  1  0  0  0  0
  3  2  1  0  0  0  0
  3  4  1  0  0  0  0
  5  3  2  0  0  0  0
  6  5  1  0  0  0  0
  7  6  2  0  0  0  0
  8  7  1  0  0  0  0
  2  8  2  0  0  0  0
M  END
> <ChemID>
100284

> <CAS>
95-57-8

> <Original_SMILES>
Oc1ccccc1Cl

> <preferred_name>
2-Chlorophenol

> <dsstox_substance_id>
DTXSID5021544

> <dsstox_compound_id>
DTXCID901544

> <qc_level>
DSSTox_Low

> <Canonical_QSARr>
OC1=CC=CC=C1Cl

> <InChI_Code_QSARr>
InChI=1S/C6H5ClO/c7-5-3-1-2-4-6(5)8/h1-4,8H

> <InChI Key_QSARr>
ISPYQTSUDJAMAB-UHFFFAOYSA-N

> <Salt_Solvent>


> <Salt_Solvent_ID>
0

> <MPID>
100293

> <Tr_1_Tst_0>
1

> <Ready_Biodeg>
0.0

$$$$
Row276
  Mrv171c012251911052D          

  9  9  0  0  0  0            999 V2000
    2.5410   -1.6499    0.0000 C   0  0  0  0  0  0  0  0  0  0  0  0
    1.8266   -1.2374    0.0000 C   0  0  0  0  0  0  0  0  0  0  0  0
    1.8266   -0.4124    0.0000 C   0  0  0  0  0  0  0  0  0  0  0  0
    1.1121    0.0001    0.0000 C   0  0  0  0  0  0  0  0  0  0  0  0
    1.1121    0.8251    0.0000 C   0  0  0  0  0  0  0  0  0  0  0  0
    0.3976   -0.4124    0.0000 C   0  0  0  0  0  0  0  0  0  0  0  0
    0.3976   -1.2374    0.0000 C   0  0  0  0  0  0  0  0  0  0  0  0
    1.1121   -1.6499    0.0000 C   0  0  0  0  0  0  0  0  0  0  0  0
    1.1121   -2.4749    0.0000 C   0  0  0  0  0  0  0  0  0  0  0  0
  1  2  1  0  0  0  0
  3  2  1  0  0  0  0
  4  3  2  0  0  0  0
  4  5  1  0  0  0  0
  6  4  1  0  0  0  0
  7  6  2  0  0  0  0
  8  7  1  0  0  0  0
  2  8  2  0  0  0  0
  8  9  1  0  0  0  0
M  END
> <ChemID>
100285

> <CAS>
95-63-6

> <Original_SMILES>
Cc1cc(C)c(C)cc1

> <preferred_name>
1,2,4-Trimethylbenzene

> <dsstox_substance_id>
DTXSID6021402

> <dsstox_compound_id>
DTXCID701402

> <qc_level>
DSSTox_Low

> <Canonical_QSARr>
CC1=CC(C)=C(C)C=C1

> <InChI_Code_QSARr>
InChI=1S/C9H12/c1-7-4-5-8(2)9(3)6-7/h4-6H,1-3H3

> <InChI Key_QSARr>
GWHJZXXIDMPWGX-UHFFFAOYSA-N

> <Salt_Solvent>


> <Salt_Solvent_ID>
0

> <MPID>
100294

> <Tr_1_Tst_0>
0

> <Ready_Biodeg>
0.0

$$$$
Row277
  Mrv171c012251911052D          

  9  9  0  0  0  0            999 V2000
    2.8588   -0.1833    0.0000 C   0  0  0  0  0  0  0  0  0  0  0  0
    2.1443   -0.5958    0.0000 C   0  0  0  0  0  0  0  0  0  0  0  0
    1.4298   -0.1833    0.0000 C   0  0  0  0  0  0  0  0  0  0  0  0
    1.4298    0.6417    0.0000 C   0  0  0  0  0  0  0  0  0  0  0  0
    0.7153   -0.5958    0.0000 C   0  0  0  0  0  0  0  0  0  0  0  0
    0.7153   -1.4208    0.0000 C   0  0  0  0  0  0  0  0  0  0  0  0
    1.4298   -1.8333    0.0000 C   0  0  0  0  0  0  0  0  0  0  0  0
    1.4298   -2.6583    0.0000 N   0  0  0  0  0  0  0  0  0  0  0  0
    2.1443   -1.4208    0.0000 C   0  0  0  0  0  0  0  0  0  0  0  0
  1  2  1  0  0  0  0
  3  2  1  0  0  0  0
  3  4  1  0  0  0  0
  5  3  2  0  0  0  0
  6  5  1  0  0  0  0
  7  6  2  0  0  0  0
  7  8  1  0  0  0  0
  9  7  1  0  0  0  0
  2  9  2  0  0  0  0
M  END
> <ChemID>
100286

> <CAS>
95-64-7

> <Original_SMILES>
Cc1cc(N)ccc1C

> <preferred_name>
3,4-Dimethylaniline

> <dsstox_substance_id>
DTXSID3026308

> <dsstox_compound_id>
DTXCID406308

> <qc_level>
DSSTox_Low

> <Canonical_QSARr>
CC1=CC(N)=CC=C1C

> <InChI_Code_QSARr>
InChI=1S/C8H11N/c1-6-3-4-8(9)5-7(6)2/h3-5H,9H2,1-2H3

> <InChI Key_QSARr>
DOLQYFPDPKPQSS-UHFFFAOYSA-N

> <Salt_Solvent>


> <Salt_Solvent_ID>
0

> <MPID>
100295

> <Tr_1_Tst_0>
1

> <Ready_Biodeg>
1.0

$$$$
Row278
  Mrv171c012251911052D          

  9  9  0  0  0  0            999 V2000
    1.4357   -1.2390    0.0000 C   0  0  0  0  0  0  0  0  0  0  0  0
    0.7212   -0.8265    0.0000 C   0  0  0  0  0  0  0  0  0  0  0  0
    0.7212   -0.0015    0.0000 O   0  0  0  0  0  0  0  0  0  0  0  0
    0.0068   -1.2390    0.0000 C   0  0  0  0  0  0  0  0  0  0  0  0
    0.0068   -2.0640    0.0000 C   0  0  0  0  0  0  0  0  0  0  0  0
    0.7212   -2.4765    0.0000 C   0  0  0  0  0  0  0  0  0  0  0  0
    0.7212   -3.3015    0.0000 C   0  0  0  0  0  0  0  0  0  0  0  0
    1.4357   -2.0640    0.0000 C   0  0  0  0  0  0  0  0  0  0  0  0
    2.1502   -2.4765    0.0000 C   0  0  0  0  0  0  0  0  0  0  0  0
  2  1  2  0  0  0  0
  2  3  1  0  0  0  0
  4  2  1  0  0  0  0
  5  4  2  0  0  0  0
  6  5  1  0  0  0  0
  6  7  1  0  0  0  0
  8  6  2  0  0  0  0
  1  8  1  0  0  0  0
  8  9  1  0  0  0  0
M  END
> <ChemID>
100287

> <CAS>
95-65-8

> <Original_SMILES>
Cc1cc(O)ccc1C

> <preferred_name>
3,4-Dimethylphenol

> <dsstox_substance_id>
DTXSID4024062

> <dsstox_compound_id>
DTXCID004062

> <qc_level>
DSSTox_Low

> <Canonical_QSARr>
CC1C=C(O)C=CC=1C

> <InChI_Code_QSARr>
InChI=1S/C8H10O/c1-6-3-4-8(9)5-7(6)2/h3-5,9H,1-2H3

> <InChI Key_QSARr>
YCOXTKKNXUZSKD-UHFFFAOYSA-N

> <Salt_Solvent>


> <Salt_Solvent_ID>
0

> <MPID>
100296

> <Tr_1_Tst_0>
1

> <Ready_Biodeg>
1.0

$$$$
Row279
  Mrv171c012251911052D          

  9  9  0  0  0  0            999 V2000
    1.7474   -2.4749    0.0000 N   0  0  0  0  0  0  0  0  0  0  0  0
    1.7474   -1.6499    0.0000 C   0  0  0  0  0  0  0  0  0  0  0  0
    2.4618   -1.2374    0.0000 C   0  0  0  0  0  0  0  0  0  0  0  0
    2.4618   -0.4124    0.0000 C   0  0  0  0  0  0  0  0  0  0  0  0
    1.7474    0.0001    0.0000 C   0  0  0  0  0  0  0  0  0  0  0  0
    1.7474    0.8251    0.0000 C   0  0  0  0  0  0  0  0  0  0  0  0
    1.0329   -0.4124    0.0000 C   0  0  0  0  0  0  0  0  0  0  0  0
    1.0329   -1.2374    0.0000 C   0  0  0  0  0  0  0  0  0  0  0  0
    0.3184   -1.6499    0.0000 C   0  0  0  0  0  0  0  0  0  0  0  0
  1  2  1  0  0  0  0
  3  2  1  0  0  0  0
  4  3  2  0  0  0  0
  5  4  1  0  0  0  0
  5  6  1  0  0  0  0
  7  5  2  0  0  0  0
  8  7  1  0  0  0  0
  2  8  2  0  0  0  0
  8  9  1  0  0  0  0
M  END
> <ChemID>
100288

> <CAS>
95-68-1

> <Original_SMILES>
Cc1cc(C)c(N)cc1

> <preferred_name>
2,4-Dimethylaniline

> <dsstox_substance_id>
DTXSID8026305

> <dsstox_compound_id>
DTXCID206305

> <qc_level>
DSSTox_Low

> <Canonical_QSARr>
CC1=CC(C)=C(N)C=C1

> <InChI_Code_QSARr>
InChI=1S/C8H11N/c1-6-3-4-8(9)7(2)5-6/h3-5H,9H2,1-2H3

> <InChI Key_QSARr>
CZZZABOKJQXEBO-UHFFFAOYSA-N

> <Salt_Solvent>


> <Salt_Solvent_ID>
0

> <MPID>
100297

> <Tr_1_Tst_0>
1

> <Ready_Biodeg>
0.0

$$$$
Row280
  Mrv171c012251911052D          

  9  9  0  0  0  0            999 V2000
    1.4222   -2.4624    0.0000 N   0  0  0  0  0  0  0  0  0  0  0  0
    1.4222   -1.6374    0.0000 C   0  0  0  0  0  0  0  0  0  0  0  0
    2.1367   -1.2249    0.0000 C   0  0  0  0  0  0  0  0  0  0  0  0
    2.1367   -0.3999    0.0000 C   0  0  0  0  0  0  0  0  0  0  0  0
    1.4222    0.0126    0.0000 C   0  0  0  0  0  0  0  0  0  0  0  0
    1.4222    0.8376    0.0000 Cl  0  0  0  0  0  0  0  0  0  0  0  0
    0.7078   -0.3999    0.0000 C   0  0  0  0  0  0  0  0  0  0  0  0
    0.7078   -1.2249    0.0000 C   0  0  0  0  0  0  0  0  0  0  0  0
   -0.0067   -1.6374    0.0000 C   0  0  0  0  0  0  0  0  0  0  0  0
  1  2  1  0  0  0  0
  3  2  1  0  0  0  0
  4  3  2  0  0  0  0
  5  4  1  0  0  0  0
  5  6  1  0  0  0  0
  7  5  2  0  0  0  0
  8  7  1  0  0  0  0
  2  8  2  0  0  0  0
  8  9  1  0  0  0  0
M  END
> <ChemID>
100289

> <CAS>
95-69-2

> <Original_SMILES>
Cc1cc(Cl)ccc1N

> <preferred_name>
4-Chloro-2-methylaniline

> <dsstox_substance_id>
DTXSID1041508

> <dsstox_compound_id>
DTXCID9021508

> <qc_level>
DSSTox_Low

> <Canonical_QSARr>
CC1C=C(Cl)C=CC=1N

> <InChI_Code_QSARr>
InChI=1S/C7H8ClN/c1-5-4-6(8)2-3-7(5)9/h2-4H,9H2,1H3

> <InChI Key_QSARr>
CXNVOWPRHWWCQR-UHFFFAOYSA-N

> <Salt_Solvent>


> <Salt_Solvent_ID>
0

> <MPID>
100298

> <Tr_1_Tst_0>
0

> <Ready_Biodeg>
0.0

$$$$
Row281
  Mrv171c012251911052D          

  9  9  0  0  0  0            999 V2000
    1.2702   -0.2750    0.0000 C   0  0  0  0  0  0  0  0  0  0  0  0
    1.9846   -0.6875    0.0000 C   0  0  0  0  0  0  0  0  0  0  0  0
    1.2702    0.5500    0.0000 C   0  0  0  0  0  0  0  0  0  0  0  0
    0.5557    0.9625    0.0000 C   0  0  0  0  0  0  0  0  0  0  0  0
    0.5557    1.7875    0.0000 Cl  0  0  0  0  0  0  0  0  0  0  0  0
   -0.1588    0.5500    0.0000 C   0  0  0  0  0  0  0  0  0  0  0  0
   -0.8732    0.9625    0.0000 C   0  0  0  0  0  0  0  0  0  0  0  0
   -0.1588   -0.2750    0.0000 C   0  0  0  0  0  0  0  0  0  0  0  0
    0.5557   -0.6875    0.0000 C   0  0  0  0  0  0  0  0  0  0  0  0
  1  2  1  0  0  0  0
  3  1  1  0  0  0  0
  4  3  2  0  0  0  0
  4  5  1  0  0  0  0
  6  4  1  0  0  0  0
  6  7  1  0  0  0  0
  8  6  2  0  0  0  0
  9  8  1  0  0  0  0
  1  9  2  0  0  0  0
M  END
> <ChemID>
100290

> <CAS>
95-72-7

> <Original_SMILES>
Cc1cc(Cl)c(C)cc1

> <preferred_name>
Benzene, 2-chloro-1,4-dimethyl-

> <dsstox_substance_id>
DTXSID9059125

> <dsstox_compound_id>
DTXCID2048955

> <qc_level>
Public_High

> <Canonical_QSARr>
CC1C=C(Cl)C(C)=CC=1

> <InChI_Code_QSARr>
InChI=1S/C8H9Cl/c1-6-3-4-7(2)8(9)5-6/h3-5H,1-2H3

> <InChI Key_QSARr>
KZNRNQGTVRTDPN-UHFFFAOYSA-N

> <Salt_Solvent>


> <Salt_Solvent_ID>
0

> <MPID>
100299

> <Tr_1_Tst_0>
1

> <Ready_Biodeg>
0.0

$$$$
Row282
  Mrv171c012251911052D          

  9  9  0  0  0  0            999 V2000
    1.4296   -2.6583    0.0000 N   0  0  0  0  0  0  0  0  0  0  0  0
    1.4296   -1.8333    0.0000 C   0  0  0  0  0  0  0  0  0  0  0  0
    2.1441   -1.4208    0.0000 C   0  0  0  0  0  0  0  0  0  0  0  0
    2.1441   -0.5958    0.0000 C   0  0  0  0  0  0  0  0  0  0  0  0
    1.4296   -0.1833    0.0000 C   0  0  0  0  0  0  0  0  0  0  0  0
    1.4296    0.6417    0.0000 Cl  0  0  0  0  0  0  0  0  0  0  0  0
    0.7151   -0.5958    0.0000 C   0  0  0  0  0  0  0  0  0  0  0  0
    0.0007   -0.1833    0.0000 Cl  0  0  0  0  0  0  0  0  0  0  0  0
    0.7151   -1.4208    0.0000 C   0  0  0  0  0  0  0  0  0  0  0  0
  1  2  1  0  0  0  0
  3  2  1  0  0  0  0
  4  3  2  0  0  0  0
  5  4  1  0  0  0  0
  5  6  1  0  0  0  0
  7  5  2  0  0  0  0
  7  8  1  0  0  0  0
  9  7  1  0  0  0  0
  2  9  2  0  0  0  0
M  END
> <ChemID>
100291

> <CAS>
95-76-1

> <Original_SMILES>
Nc1cc(Cl)c(Cl)cc1

> <preferred_name>
3,4-Dichloroaniline

> <dsstox_substance_id>
DTXSID7021815

> <dsstox_compound_id>
DTXCID001815

> <qc_level>
DSSTox_Low

> <Canonical_QSARr>
NC1=CC(Cl)=C(Cl)C=C1

> <InChI_Code_QSARr>
InChI=1S/C6H5Cl2N/c7-5-2-1-4(9)3-6(5)8/h1-3H,9H2

> <InChI Key_QSARr>
SDYWXFYBZPNOFX-UHFFFAOYSA-N

> <Salt_Solvent>


> <Salt_Solvent_ID>
0

> <MPID>
100300

> <Tr_1_Tst_0>
1

> <Ready_Biodeg>
0.0

$$$$
Row283
  Mrv171c012251911052D          

  9  9  0  0  0  0            999 V2000
    2.8587   -0.1833    0.0000 Cl  0  0  0  0  0  0  0  0  0  0  0  0
    2.1442   -0.5958    0.0000 C   0  0  0  0  0  0  0  0  0  0  0  0
    1.4298   -0.1833    0.0000 C   0  0  0  0  0  0  0  0  0  0  0  0
    1.4298    0.6417    0.0000 Cl  0  0  0  0  0  0  0  0  0  0  0  0
    0.7153   -0.5958    0.0000 C   0  0  0  0  0  0  0  0  0  0  0  0
    0.7153   -1.4208    0.0000 C   0  0  0  0  0  0  0  0  0  0  0  0
    1.4298   -1.8333    0.0000 C   0  0  0  0  0  0  0  0  0  0  0  0
    1.4298   -2.6583    0.0000 O   0  0  0  0  0  0  0  0  0  0  0  0
    2.1442   -1.4208    0.0000 C   0  0  0  0  0  0  0  0  0  0  0  0
  1  2  1  0  0  0  0
  3  2  1  0  0  0  0
  3  4  1  0  0  0  0
  5  3  2  0  0  0  0
  6  5  1  0  0  0  0
  7  6  2  0  0  0  0
  7  8  1  0  0  0  0
  9  7  1  0  0  0  0
  2  9  2  0  0  0  0
M  END
> <ChemID>
100292

> <CAS>
95-77-2

> <Original_SMILES>
Oc1cc(Cl)c(Cl)cc1

> <preferred_name>
3,4-Dichlorophenol

> <dsstox_substance_id>
DTXSID7025005

> <dsstox_compound_id>
DTXCID505005

> <qc_level>
DSSTox_Low

> <Canonical_QSARr>
OC1C=C(Cl)C(Cl)=CC=1

> <InChI_Code_QSARr>
InChI=1S/C6H4Cl2O/c7-5-2-1-4(9)3-6(5)8/h1-3,9H

> <InChI Key_QSARr>
WDNBURPWRNALGP-UHFFFAOYSA-N

> <Salt_Solvent>


> <Salt_Solvent_ID>
0

> <MPID>
100301

> <Tr_1_Tst_0>
1

> <Ready_Biodeg>
0.0

$$$$
Row284
  Mrv171c012251911052D          

  9  9  0  0  0  0            999 V2000
    2.5410   -1.6499    0.0000 N   0  0  0  0  0  0  0  0  0  0  0  0
    1.8266   -1.2374    0.0000 C   0  0  0  0  0  0  0  0  0  0  0  0
    1.8266   -0.4124    0.0000 C   0  0  0  0  0  0  0  0  0  0  0  0
    1.1121    0.0001    0.0000 C   0  0  0  0  0  0  0  0  0  0  0  0
    1.1121    0.8251    0.0000 C   0  0  0  0  0  0  0  0  0  0  0  0
    0.3976   -0.4124    0.0000 C   0  0  0  0  0  0  0  0  0  0  0  0
    0.3976   -1.2374    0.0000 C   0  0  0  0  0  0  0  0  0  0  0  0
    1.1121   -1.6499    0.0000 C   0  0  0  0  0  0  0  0  0  0  0  0
    1.1121   -2.4749    0.0000 C   0  0  0  0  0  0  0  0  0  0  0  0
  1  2  1  0  0  0  0
  3  2  1  0  0  0  0
  4  3  2  0  0  0  0
  4  5  1  0  0  0  0
  6  4  1  0  0  0  0
  7  6  2  0  0  0  0
  8  7  1  0  0  0  0
  2  8  2  0  0  0  0
  8  9  1  0  0  0  0
M  END
> <ChemID>
100293

> <CAS>
95-78-3

> <Original_SMILES>
Cc1cc(N)c(C)cc1

> <preferred_name>
2,5-Dimethylaniline

> <dsstox_substance_id>
DTXSID3026306

> <dsstox_compound_id>
DTXCID606306

> <qc_level>
DSSTox_Low

> <Canonical_QSARr>
CC1=CC(N)=C(C)C=C1

> <InChI_Code_QSARr>
InChI=1S/C8H11N/c1-6-3-4-7(2)8(9)5-6/h3-5H,9H2,1-2H3

> <InChI Key_QSARr>
VOWZNBNDMFLQGM-UHFFFAOYSA-N

> <Salt_Solvent>


> <Salt_Solvent_ID>
0

> <MPID>
100302

> <Tr_1_Tst_0>
0

> <Ready_Biodeg>
0.0

$$$$
Row285
  Mrv171c012251911052D          

  9  9  0  0  0  0            999 V2000
    2.5410   -1.6499    0.0000 N   0  0  0  0  0  0  0  0  0  0  0  0
    1.8265   -1.2374    0.0000 C   0  0  0  0  0  0  0  0  0  0  0  0
    1.8265   -0.4124    0.0000 C   0  0  0  0  0  0  0  0  0  0  0  0
    1.1121    0.0001    0.0000 C   0  0  0  0  0  0  0  0  0  0  0  0
    1.1121    0.8251    0.0000 N   0  0  0  0  0  0  0  0  0  0  0  0
    0.3976   -0.4124    0.0000 C   0  0  0  0  0  0  0  0  0  0  0  0
    0.3976   -1.2374    0.0000 C   0  0  0  0  0  0  0  0  0  0  0  0
    1.1121   -1.6499    0.0000 C   0  0  0  0  0  0  0  0  0  0  0  0
    1.1121   -2.4749    0.0000 C   0  0  0  0  0  0  0  0  0  0  0  0
  1  2  1  0  0  0  0
  3  2  1  0  0  0  0
  4  3  2  0  0  0  0
  4  5  1  0  0  0  0
  6  4  1  0  0  0  0
  7  6  2  0  0  0  0
  8  7  1  0  0  0  0
  2  8  2  0  0  0  0
  8  9  1  0  0  0  0
M  END
> <ChemID>
100294

> <CAS>
95-80-7

> <Original_SMILES>
Cc1ccc(N)cc1N

> <preferred_name>
2,4-Diaminotoluene

> <dsstox_substance_id>
DTXSID4020402

> <dsstox_compound_id>
DTXCID00402

> <qc_level>
DSSTox_High

> <Canonical_QSARr>
CC1C=CC(N)=CC=1N

> <InChI_Code_QSARr>
InChI=1S/C7H10N2/c1-5-2-3-6(8)4-7(5)9/h2-4H,8-9H2,1H3

> <InChI Key_QSARr>
VOZKAJLKRJDJLL-UHFFFAOYSA-N

> <Salt_Solvent>


> <Salt_Solvent_ID>
0

> <MPID>
100303

> <Tr_1_Tst_0>
1

> <Ready_Biodeg>
0.0

$$$$
Row286
  Mrv171c012251911052D          

  9  9  0  0  0  0            999 V2000
    2.5410   -1.6499    0.0000 N   0  0  0  0  0  0  0  0  0  0  0  0
    1.8265   -1.2374    0.0000 C   0  0  0  0  0  0  0  0  0  0  0  0
    1.8265   -0.4124    0.0000 C   0  0  0  0  0  0  0  0  0  0  0  0
    1.1121    0.0001    0.0000 C   0  0  0  0  0  0  0  0  0  0  0  0
    1.1121    0.8251    0.0000 Cl  0  0  0  0  0  0  0  0  0  0  0  0
    0.3976   -0.4124    0.0000 C   0  0  0  0  0  0  0  0  0  0  0  0
    0.3976   -1.2374    0.0000 C   0  0  0  0  0  0  0  0  0  0  0  0
    1.1121   -1.6499    0.0000 C   0  0  0  0  0  0  0  0  0  0  0  0
    1.1121   -2.4749    0.0000 Cl  0  0  0  0  0  0  0  0  0  0  0  0
  1  2  1  0  0  0  0
  3  2  1  0  0  0  0
  4  3  2  0  0  0  0
  4  5  1  0  0  0  0
  6  4  1  0  0  0  0
  7  6  2  0  0  0  0
  8  7  1  0  0  0  0
  2  8  2  0  0  0  0
  8  9  1  0  0  0  0
M  END
> <ChemID>
100295

> <CAS>
95-82-9

> <Original_SMILES>
Nc1cc(Cl)ccc1Cl

> <preferred_name>
2,5-Dichloroaniline

> <dsstox_substance_id>
DTXSID6024967

> <dsstox_compound_id>
DTXCID804967

> <qc_level>
DSSTox_Low

> <Canonical_QSARr>
NC1C=C(Cl)C=CC=1Cl

> <InChI_Code_QSARr>
InChI=1S/C6H5Cl2N/c7-4-1-2-5(8)6(9)3-4/h1-3H,9H2

> <InChI Key_QSARr>
AVYGCQXNNJPXSS-UHFFFAOYSA-N

> <Salt_Solvent>


> <Salt_Solvent_ID>
0

> <MPID>
100304

> <Tr_1_Tst_0>
1

> <Ready_Biodeg>
0.0

$$$$
Row287
  Mrv171c012251911052D          

  9  9  0  0  0  0            999 V2000
    1.7447   -1.6487    0.0000 C   0  0  0  0  0  0  0  0  0  0  0  0
    1.7447   -2.4737    0.0000 Cl  0  0  0  0  0  0  0  0  0  0  0  0
    2.4592   -1.2362    0.0000 C   0  0  0  0  0  0  0  0  0  0  0  0
    2.4592   -0.4112    0.0000 C   0  0  0  0  0  0  0  0  0  0  0  0
    1.7447    0.0013    0.0000 C   0  0  0  0  0  0  0  0  0  0  0  0
    1.7447    0.8263    0.0000 O   0  0  0  0  0  0  0  0  0  0  0  0
    1.0302   -0.4112    0.0000 C   0  0  0  0  0  0  0  0  0  0  0  0
    1.0302   -1.2362    0.0000 C   0  0  0  0  0  0  0  0  0  0  0  0
    0.3157   -1.6487    0.0000 O   0  0  0  0  0  0  0  0  0  0  0  0
  1  2  1  0  0  0  0
  3  1  2  0  0  0  0
  4  3  1  0  0  0  0
  5  4  2  0  0  0  0
  5  6  1  0  0  0  0
  7  5  1  0  0  0  0
  8  7  2  0  0  0  0
  1  8  1  0  0  0  0
  8  9  1  0  0  0  0
M  END
> <ChemID>
100296

> <CAS>
95-88-5

> <Original_SMILES>
Oc1cc(O)c(Cl)cc1

> <preferred_name>
4-Chlororesorcinol

> <dsstox_substance_id>
DTXSID8052643

> <dsstox_compound_id>
DTXCID5031216

> <qc_level>
DSSTox_Low

> <Canonical_QSARr>
OC1C=C(O)C(Cl)=CC=1

> <InChI_Code_QSARr>
InChI=1S/C6H5ClO2/c7-5-2-1-4(8)3-6(5)9/h1-3,8-9H

> <InChI Key_QSARr>
JQVAPEJNIZULEK-UHFFFAOYSA-N

> <Salt_Solvent>


> <Salt_Solvent_ID>
0

> <MPID>
100305

> <Tr_1_Tst_0>
1

> <Ready_Biodeg>
0.0

$$$$
Row288
  Mrv171c012251911052D          

 10 10  0  0  0  0            999 V2000
    3.0867   -0.6079    0.0000 Cl  0  0  0  0  0  0  0  0  0  0  0  0
    2.3722   -1.0204    0.0000 C   0  0  0  0  0  0  0  0  0  0  0  0
    1.6577   -0.6079    0.0000 C   0  0  0  0  0  0  0  0  0  0  0  0
    1.6577    0.2171    0.0000 Cl  0  0  0  0  0  0  0  0  0  0  0  0
    0.9433   -1.0204    0.0000 C   0  0  0  0  0  0  0  0  0  0  0  0
    0.9433   -1.8454    0.0000 C   0  0  0  0  0  0  0  0  0  0  0  0
    0.2288   -2.2579    0.0000 Cl  0  0  0  0  0  0  0  0  0  0  0  0
    1.6577   -2.2579    0.0000 C   0  0  0  0  0  0  0  0  0  0  0  0
    1.6577   -3.0829    0.0000 Cl  0  0  0  0  0  0  0  0  0  0  0  0
    2.3722   -1.8454    0.0000 C   0  0  0  0  0  0  0  0  0  0  0  0
  1  2  1  0  0  0  0
  3  2  2  0  0  0  0
  3  4  1  0  0  0  0
  5  3  1  0  0  0  0
  6  5  2  0  0  0  0
  6  7  1  0  0  0  0
  8  6  1  0  0  0  0
  8  9  1  0  0  0  0
 10  8  2  0  0  0  0
  2 10  1  0  0  0  0
M  END
> <ChemID>
100297

> <CAS>
95-94-3

> <Original_SMILES>
Clc1cc(Cl)c(Cl)cc1Cl

> <preferred_name>
1,2,4,5-Tetrachlorobenzene

> <dsstox_substance_id>
DTXSID7024320

> <dsstox_compound_id>
DTXCID604320

> <qc_level>
DSSTox_Low

> <Canonical_QSARr>
ClC1C=C(Cl)C(Cl)=CC=1Cl

> <InChI_Code_QSARr>
InChI=1S/C6H2Cl4/c7-3-1-4(8)6(10)2-5(3)9/h1-2H

> <InChI Key_QSARr>
JHBKHLUZVFWLAG-UHFFFAOYSA-N

> <Salt_Solvent>


> <Salt_Solvent_ID>
0

> <MPID>
100306

> <Tr_1_Tst_0>
0

> <Ready_Biodeg>
0.0

$$$$
Row289
  Mrv171c012251911052D          

 10 10  0  0  0  0            999 V2000
    2.8552   -1.6506    0.0000 Cl  0  0  0  0  0  0  0  0  0  0  0  0
    2.1408   -1.2381    0.0000 C   0  0  0  0  0  0  0  0  0  0  0  0
    2.1408   -0.4131    0.0000 C   0  0  0  0  0  0  0  0  0  0  0  0
    1.4263   -0.0006    0.0000 C   0  0  0  0  0  0  0  0  0  0  0  0
    1.4263    0.8244    0.0000 Cl  0  0  0  0  0  0  0  0  0  0  0  0
    0.7118   -0.4131    0.0000 C   0  0  0  0  0  0  0  0  0  0  0  0
   -0.0026   -0.0006    0.0000 Cl  0  0  0  0  0  0  0  0  0  0  0  0
    0.7118   -1.2381    0.0000 C   0  0  0  0  0  0  0  0  0  0  0  0
    1.4263   -1.6506    0.0000 C   0  0  0  0  0  0  0  0  0  0  0  0
    1.4263   -2.4756    0.0000 O   0  0  0  0  0  0  0  0  0  0  0  0
  1  2  1  0  0  0  0
  3  2  1  0  0  0  0
  4  3  2  0  0  0  0
  4  5  1  0  0  0  0
  6  4  1  0  0  0  0
  6  7  1  0  0  0  0
  8  6  2  0  0  0  0
  9  8  1  0  0  0  0
  2  9  2  0  0  0  0
  9 10  1  0  0  0  0
M  END
> <ChemID>
100298

> <CAS>
95-95-4

> <Original_SMILES>
Oc1cc(Cl)c(Cl)cc1Cl

> <preferred_name>
2,4,5-Trichlorophenol

> <dsstox_substance_id>
DTXSID4024359

> <dsstox_compound_id>
DTXCID104359

> <qc_level>
DSSTox_High

> <Canonical_QSARr>
OC1C=C(Cl)C(Cl)=CC=1Cl

> <InChI_Code_QSARr>
InChI=1S/C6H3Cl3O/c7-3-1-5(9)6(10)2-4(3)8/h1-2,10H

> <InChI Key_QSARr>
LHJGJYXLEPZJPM-UHFFFAOYSA-N

> <Salt_Solvent>


> <Salt_Solvent_ID>
0

> <MPID>
100307

> <Tr_1_Tst_0>
1

> <Ready_Biodeg>
0.0

$$$$
Row290
  Mrv171c012251911052D          

  9 10  0  0  0  0            999 V2000
    1.2447   -2.3706    0.0000 C   0  0  0  0  0  0  0  0  0  0  0  0
    2.0697   -2.3706    0.0000 O   0  0  0  0  0  0  0  0  0  0  0  0
    1.6572   -1.6562    0.0000 C   0  0  0  0  0  0  0  0  0  0  0  0
    1.6572   -0.8312    0.0000 C   0  0  0  0  0  0  0  0  0  0  0  0
    2.3716   -0.4187    0.0000 C   0  0  0  0  0  0  0  0  0  0  0  0
    2.3716    0.4063    0.0000 C   0  0  0  0  0  0  0  0  0  0  0  0
    1.6572    0.8188    0.0000 C   0  0  0  0  0  0  0  0  0  0  0  0
    0.9427    0.4063    0.0000 C   0  0  0  0  0  0  0  0  0  0  0  0
    0.9427   -0.4187    0.0000 C   0  0  0  0  0  0  0  0  0  0  0  0
  2  1  1  0  0  0  0
  3  2  1  0  0  0  0
  1  3  1  0  0  0  0
  3  4  1  0  0  0  0
  5  4  1  0  0  0  0
  6  5  2  0  0  0  0
  7  6  1  0  0  0  0
  8  7  2  0  0  0  0
  9  8  1  0  0  0  0
  4  9  2  0  0  0  0
M  END
> <ChemID>
100299

> <CAS>
96-09-3

> <Original_SMILES>
C1OC1c1ccccc1

> <preferred_name>
Styrene oxide

> <dsstox_substance_id>
DTXSID2021286

> <dsstox_compound_id>
DTXCID301286

> <qc_level>
DSSTox_High

> <Canonical_QSARr>
C1OC1C1C=CC=CC=1

> <InChI_Code_QSARr>
InChI=1S/C8H8O/c1-2-4-7(5-3-1)8-6-9-8/h1-5,8H,6H2

> <InChI Key_QSARr>
AWMVMTVKBNGEAK-UHFFFAOYSA-N

> <Salt_Solvent>


> <Salt_Solvent_ID>
0

> <MPID>
100308

> <Tr_1_Tst_0>
1

> <Ready_Biodeg>
1.0

$$$$
Row291
  Mrv171c012251911052D          

  6  5  0  0  0  0            999 V2000
    0.8266   -1.6670    0.0000 Br  0  0  0  0  0  0  0  0  0  0  0  0
    1.2391   -0.9525    0.0000 C   0  0  0  0  0  0  0  0  0  0  0  0
    2.0641   -0.9525    0.0000 C   0  0  0  0  0  0  0  0  0  0  0  0
    2.4766   -1.6670    0.0000 Br  0  0  0  0  0  0  0  0  0  0  0  0
    0.8266   -0.2381    0.0000 C   0  0  0  0  0  0  0  0  0  0  0  0
    0.0016   -0.2381    0.0000 Cl  0  0  0  0  0  0  0  0  0  0  0  0
  1  2  1  0  0  0  0
  2  3  1  0  0  0  0
  3  4  1  0  0  0  0
  2  5  1  0  0  0  0
  5  6  1  0  0  0  0
M  END
> <ChemID>
100300

> <CAS>
96-12-8

> <Original_SMILES>
ClCC(Br)CBr

> <preferred_name>
1,2-Dibromo-3-chloropropane

> <dsstox_substance_id>
DTXSID3020413

> <dsstox_compound_id>
DTXCID50413

> <qc_level>
DSSTox_Low

> <Canonical_QSARr>
ClCC(Br)CBr

> <InChI_Code_QSARr>
InChI=1S/C3H5Br2Cl/c4-1-3(5)2-6/h3H,1-2H2

> <InChI Key_QSARr>
WBEJYOJJBDISQU-UHFFFAOYSA-N

> <Salt_Solvent>


> <Salt_Solvent_ID>
0

> <MPID>
100309

> <Tr_1_Tst_0>
1

> <Ready_Biodeg>
0.0

$$$$
Row292
  Mrv171c012251911052D          

  6  5  0  0  0  0            999 V2000
    0.8266   -1.6670    0.0000 Cl  0  0  0  0  0  0  0  0  0  0  0  0
    1.2391   -0.9525    0.0000 C   0  0  0  0  0  0  0  0  0  0  0  0
    2.0641   -0.9525    0.0000 C   0  0  0  0  0  0  0  0  0  0  0  0
    2.4766   -1.6670    0.0000 Cl  0  0  0  0  0  0  0  0  0  0  0  0
    0.8266   -0.2381    0.0000 C   0  0  0  0  0  0  0  0  0  0  0  0
    0.0016   -0.2381    0.0000 Cl  0  0  0  0  0  0  0  0  0  0  0  0
  1  2  1  0  0  0  0
  2  3  1  0  0  0  0
  3  4  1  0  0  0  0
  2  5  1  0  0  0  0
  5  6  1  0  0  0  0
M  END
> <ChemID>
100301

> <CAS>
96-18-4

> <Original_SMILES>
ClC(CCl)CCl

> <preferred_name>
1,2,3-Trichloropropane

> <dsstox_substance_id>
DTXSID9021390

> <dsstox_compound_id>
DTXCID401390

> <qc_level>
DSSTox_Low

> <Canonical_QSARr>
ClC(CCl)CCl

> <InChI_Code_QSARr>
InChI=1S/C3H5Cl3/c4-1-3(6)2-5/h3H,1-2H2

> <InChI Key_QSARr>
CFXQEHVMCRXUSD-UHFFFAOYSA-N

> <Salt_Solvent>


> <Salt_Solvent_ID>
0

> <MPID>
100310

> <Tr_1_Tst_0>
0

> <Ready_Biodeg>
0.0

$$$$
Row293
  Mrv171c012251911052D          

  6  5  0  0  0  0            999 V2000
    1.2375   -2.1439    0.0000 C   0  0  0  0  0  0  0  0  0  0  0  0
    1.6500   -1.4295    0.0000 C   0  0  0  0  0  0  0  0  0  0  0  0
    1.2375   -0.7150    0.0000 C   0  0  0  0  0  0  0  0  0  0  0  0
    1.6500   -0.0005    0.0000 C   0  0  0  0  0  0  0  0  0  0  0  0
    1.2375    0.7139    0.0000 C   0  0  0  0  0  0  0  0  0  0  0  0
    0.4125   -0.7150    0.0000 O   0  0  0  0  0  0  0  0  0  0  0  0
  1  2  1  0  0  0  0
  2  3  1  0  0  0  0
  3  4  1  0  0  0  0
  4  5  1  0  0  0  0
  3  6  2  0  0  0  0
M  END
> <ChemID>
100302

> <CAS>
96-22-0

> <Original_SMILES>
CCC(=O)CC

> <preferred_name>
3-Pentanone

> <dsstox_substance_id>
DTXSID6021820

> <dsstox_compound_id>
DTXCID301820

> <qc_level>
DSSTox_Low

> <Canonical_QSARr>
CCC(=O)CC

> <InChI_Code_QSARr>
InChI=1S/C5H10O/c1-3-5(6)4-2/h3-4H2,1-2H3

> <InChI Key_QSARr>
FDPIMTJIUBPUKL-UHFFFAOYSA-N

> <Salt_Solvent>


> <Salt_Solvent_ID>
0

> <MPID>
100311

> <Tr_1_Tst_0>
1

> <Ready_Biodeg>
1.0

$$$$
Row294
  Mrv171c012251911052D          

  6  5  0  0  0  0            999 V2000
    0.8266   -1.6670    0.0000 O   0  0  0  0  0  0  0  0  0  0  0  0
    1.2391   -0.9525    0.0000 C   0  0  0  0  0  0  0  0  0  0  0  0
    2.0641   -0.9525    0.0000 C   0  0  0  0  0  0  0  0  0  0  0  0
    2.4766   -1.6670    0.0000 Cl  0  0  0  0  0  0  0  0  0  0  0  0
    0.8266   -0.2381    0.0000 C   0  0  0  0  0  0  0  0  0  0  0  0
    0.0016   -0.2381    0.0000 Cl  0  0  0  0  0  0  0  0  0  0  0  0
  1  2  1  0  0  0  0
  2  3  1  0  0  0  0
  3  4  1  0  0  0  0
  2  5  1  0  0  0  0
  5  6  1  0  0  0  0
M  END
> <ChemID>
100303

> <CAS>
96-23-1

> <Original_SMILES>
OC(CCl)CCl

> <preferred_name>
1,3-Dichloro-2-propanol

> <dsstox_substance_id>
DTXSID6025010

> <dsstox_compound_id>
DTXCID805010

> <qc_level>
DSSTox_Low

> <Canonical_QSARr>
OC(CCl)CCl

> <InChI_Code_QSARr>
InChI=1S/C3H6Cl2O/c4-1-3(6)2-5/h3,6H,1-2H2

> <InChI Key_QSARr>
DEWLEGDTCGBNGU-UHFFFAOYSA-N

> <Salt_Solvent>


> <Salt_Solvent_ID>
0

> <MPID>
100312

> <Tr_1_Tst_0>
1

> <Ready_Biodeg>
1.0

$$$$
Row295
  Mrv171c012251911052D          

  6  5  0  0  0  0            999 V2000
    0.8266   -1.6670    0.0000 O   0  0  0  0  0  0  0  0  0  0  0  0
    1.2391   -0.9525    0.0000 C   0  0  0  0  0  0  0  0  0  0  0  0
    2.0641   -0.9525    0.0000 C   0  0  0  0  0  0  0  0  0  0  0  0
    2.4766   -1.6670    0.0000 Cl  0  0  0  0  0  0  0  0  0  0  0  0
    0.8266   -0.2381    0.0000 C   0  0  0  0  0  0  0  0  0  0  0  0
    0.0016   -0.2381    0.0000 O   0  0  0  0  0  0  0  0  0  0  0  0
  1  2  1  0  0  0  0
  2  3  1  0  0  0  0
  3  4  1  0  0  0  0
  2  5  1  0  0  0  0
  5  6  1  0  0  0  0
M  END
> <ChemID>
100304

> <CAS>
96-24-2

> <Original_SMILES>
OCC(O)CCl

> <preferred_name>
3-Chloro-1,2-propanediol

> <dsstox_substance_id>
DTXSID4020664

> <dsstox_compound_id>
DTXCID00664

> <qc_level>
DSSTox_Low

> <Canonical_QSARr>
OCC(O)CCl

> <InChI_Code_QSARr>
InChI=1S/C3H7ClO2/c4-1-3(6)2-5/h3,5-6H,1-2H2

> <InChI Key_QSARr>
SSZWWUDQMAHNAQ-UHFFFAOYSA-N

> <Salt_Solvent>


> <Salt_Solvent_ID>
0

> <MPID>
100313

> <Tr_1_Tst_0>
1

> <Ready_Biodeg>
1.0

$$$$
Row296
  Mrv171c012251911052D          

  6  5  0  0  0  0            999 V2000
    2.8146   -0.1146    0.0000 C   0  0  0  0  0  0  0  0  0  0  0  0
    1.9896   -0.1146    0.0000 C   0  0  0  0  0  0  0  0  0  0  0  0
    1.5771   -0.8291    0.0000 C   0  0  0  0  0  0  0  0  0  0  0  0
    0.7521   -0.8291    0.0000 N   0  0  0  0  0  0  0  0  0  0  0  0
    0.3396   -1.5436    0.0000 O   0  0  0  0  0  0  0  0  0  0  0  0
    1.9896   -1.5436    0.0000 C   0  0  0  0  0  0  0  0  0  0  0  0
  1  2  1  0  0  0  0
  2  3  1  0  0  0  0
  3  4  2  0  0  0  0
  4  5  1  4  0  0  0
  3  6  1  0  0  0  0
M  END
> <ChemID>
100305

> <CAS>
96-29-7

> <Original_SMILES>
CCC(C)=NO

> <preferred_name>
2-Butanone oxime

> <dsstox_substance_id>
DTXSID1021821

> <dsstox_compound_id>
DTXCID701821

> <qc_level>
DSSTox_Low

> <Canonical_QSARr>
CCC(C)=NO

> <InChI_Code_QSARr>
InChI=1S/C4H9NO/c1-3-4(2)5-6/h6H,3H2,1-2H3

> <InChI Key_QSARr>
WHIVNJATOVLWBW-UHFFFAOYSA-N

> <Salt_Solvent>


> <Salt_Solvent_ID>
0

> <MPID>
100314

> <Tr_1_Tst_0>
0

> <Ready_Biodeg>
0.0

$$$$
Row297
  Mrv171c012251911052D          

  6  5  0  0  0  0            999 V2000
    0.8336   -2.4618    0.0000 C   0  0  0  0  0  0  0  0  0  0  0  0
    1.2461   -1.7473    0.0000 O   0  0  0  0  0  0  0  0  0  0  0  0
    0.8336   -1.0329    0.0000 C   0  0  0  0  0  0  0  0  0  0  0  0
    1.2461   -0.3184    0.0000 C   0  0  0  0  0  0  0  0  0  0  0  0
    0.8336    0.3961    0.0000 C   0  0  0  0  0  0  0  0  0  0  0  0
    0.0086   -1.0329    0.0000 O   0  0  0  0  0  0  0  0  0  0  0  0
  1  2  1  0  0  0  0
  2  3  1  0  0  0  0
  3  4  1  0  0  0  0
  4  5  2  0  0  0  0
  3  6  2  0  0  0  0
M  END
> <ChemID>
100306

> <CAS>
96-33-3

> <Original_SMILES>
COC(=O)C=C

> <preferred_name>
Methyl acrylate

> <dsstox_substance_id>
DTXSID0024183

> <dsstox_compound_id>
DTXCID204183

> <qc_level>
DSSTox_High

> <Canonical_QSARr>
COC(=O)C=C

> <InChI_Code_QSARr>
InChI=1S/C4H6O2/c1-3-4(5)6-2/h3H,1H2,2H3

> <InChI Key_QSARr>
BAPJBEWLBFYGME-UHFFFAOYSA-N

> <Salt_Solvent>


> <Salt_Solvent_ID>
0

> <MPID>
100315

> <Tr_1_Tst_0>
1

> <Ready_Biodeg>
1.0

$$$$
Row298
  Mrv171c012251911052D          

  6  5  0  0  0  0            999 V2000
    1.4347   -0.8269    0.0000 C   0  0  0  0  0  0  0  0  0  0  0  0
    1.8472   -1.5414    0.0000 C   0  0  0  0  0  0  0  0  0  0  0  0
    1.4347   -2.2558    0.0000 Cl  0  0  0  0  0  0  0  0  0  0  0  0
    1.8472   -0.1124    0.0000 O   0  0  0  0  0  0  0  0  0  0  0  0
    1.4347    0.6020    0.0000 C   0  0  0  0  0  0  0  0  0  0  0  0
    0.6097   -0.8269    0.0000 O   0  0  0  0  0  0  0  0  0  0  0  0
  1  2  1  0  0  0  0
  2  3  1  0  0  0  0
  1  4  1  0  0  0  0
  4  5  1  0  0  0  0
  1  6  2  0  0  0  0
M  END
> <ChemID>
100307

> <CAS>
96-34-4

> <Original_SMILES>
COC(=O)CCl

> <preferred_name>
Methyl chloroacetate

> <dsstox_substance_id>
DTXSID9041576

> <dsstox_compound_id>
DTXCID7021576

> <qc_level>
DSSTox_Low

> <Canonical_QSARr>
COC(=O)CCl

> <InChI_Code_QSARr>
InChI=1S/C3H5ClO2/c1-6-3(5)2-4/h2H2,1H3

> <InChI Key_QSARr>
QABLOFMHHSOFRJ-UHFFFAOYSA-N

> <Salt_Solvent>


> <Salt_Solvent_ID>
0

> <MPID>
100316

> <Tr_1_Tst_0>
1

> <Ready_Biodeg>
1.0

$$$$
Row299
  Mrv171c012251911052D          

  6  6  0  0  0  0            999 V2000
    1.2717    0.6061    0.0000 O   0  0  0  0  0  0  0  0  0  0  0  0
    1.2717   -0.2189    0.0000 C   0  0  0  0  0  0  0  0  0  0  0  0
    0.6043   -0.7038    0.0000 O   0  0  0  0  0  0  0  0  0  0  0  0
    0.8592   -1.4885    0.0000 C   0  0  0  0  0  0  0  0  0  0  0  0
    1.6842   -1.4885    0.0000 C   0  0  0  0  0  0  0  0  0  0  0  0
    1.9392   -0.7038    0.0000 C   0  0  0  0  0  0  0  0  0  0  0  0
  1  2  2  0  0  0  0
  3  2  1  0  0  0  0
  4  3  1  0  0  0  0
  5  4  1  0  0  0  0
  6  5  1  0  0  0  0
  2  6  1  0  0  0  0
M  END
> <ChemID>
100308

> <CAS>
96-48-0

> <Original_SMILES>
O=C1CCCO1

> <preferred_name>
4-Butyrolactone

> <dsstox_substance_id>
DTXSID6020224

> <dsstox_compound_id>
DTXCID80224

> <qc_level>
DSSTox_Low

> <Canonical_QSARr>
O=C1CCCO1

> <InChI_Code_QSARr>
InChI=1S/C4H6O2/c5-4-2-1-3-6-4/h1-3H2

> <InChI Key_QSARr>
YEJRWHAVMIAJKC-UHFFFAOYSA-N

> <Salt_Solvent>


> <Salt_Solvent_ID>
0

> <MPID>
100317

> <Tr_1_Tst_0>
1

> <Ready_Biodeg>
1.0

$$$$
Row300
  Mrv171c012251911052D          

  6  6  0  0  0  0            999 V2000
    0.1509   -0.7114    0.0000 O   0  0  0  0  0  0  0  0  0  0  0  0
    0.4059   -1.4960    0.0000 C   0  0  0  0  0  0  0  0  0  0  0  0
    1.2309   -1.4960    0.0000 C   0  0  0  0  0  0  0  0  0  0  0  0
    1.4858   -0.7114    0.0000 O   0  0  0  0  0  0  0  0  0  0  0  0
    0.8184   -0.2265    0.0000 C   0  0  0  0  0  0  0  0  0  0  0  0
    0.8184    0.5985    0.0000 O   0  0  0  0  0  0  0  0  0  0  0  0
  2  1  1  0  0  0  0
  3  2  1  0  0  0  0
  4  3  1  0  0  0  0
  5  4  1  0  0  0  0
  1  5  1  0  0  0  0
  5  6  2  0  0  0  0
M  END
> <ChemID>
100309

> <CAS>
96-49-1

> <Original_SMILES>
O=C1OCCO1

> <preferred_name>
1,3-Dioxolan-2-one

> <dsstox_substance_id>
DTXSID2026600

> <dsstox_compound_id>
DTXCID806600

> <qc_level>
DSSTox_Low

> <Canonical_QSARr>
O=C1OCCO1

> <InChI_Code_QSARr>
InChI=1S/C3H4O3/c4-3-5-1-2-6-3/h1-2H2

> <InChI Key_QSARr>
KMTRUDSVKNLOMY-UHFFFAOYSA-N

> <Salt_Solvent>


> <Salt_Solvent_ID>
0

> <MPID>
100318

> <Tr_1_Tst_0>
0

> <Ready_Biodeg>
1.0

$$$$
Row301
  Mrv171c012251911052D          

  6  6  0  0  0  0            999 V2000
   -0.0035   -1.3107    0.0000 C   0  0  0  0  0  0  0  0  0  0  0  0
    0.2514   -2.0953    0.0000 C   0  0  0  0  0  0  0  0  0  0  0  0
    1.0764   -2.0953    0.0000 C   0  0  0  0  0  0  0  0  0  0  0  0
    1.3314   -1.3107    0.0000 C   0  0  0  0  0  0  0  0  0  0  0  0
    0.6639   -0.8258    0.0000 N   0  0  0  0  0  0  0  0  0  0  0  0
    0.6639   -0.0008    0.0000 C   0  0  0  0  0  0  0  0  0  0  0  0
  2  1  2  0  0  0  0
  3  2  1  0  0  0  0
  4  3  2  0  0  0  0
  5  4  1  0  0  0  0
  1  5  1  0  0  0  0
  5  6  1  0  0  0  0
M  END
> <ChemID>
100310

> <CAS>
96-54-8

> <Original_SMILES>
C[n]1cccc1

> <preferred_name>
1-Methylpyrrole

> <dsstox_substance_id>
DTXSID3052648

> <dsstox_compound_id>
DTXCID4031221

> <qc_level>
DSSTox_Low

> <Canonical_QSARr>
CN1C=CC=C1

> <InChI_Code_QSARr>
InChI=1S/C5H7N/c1-6-4-2-3-5-6/h2-5H,1H3

> <InChI Key_QSARr>
OXHNLMTVIGZXSG-UHFFFAOYSA-N

> <Salt_Solvent>


> <Salt_Solvent_ID>
0

> <MPID>
100319

> <Tr_1_Tst_0>
1

> <Ready_Biodeg>
1.0

$$$$
Row302
  Mrv171c012251911052D          

 25 26  0  0  0  0            999 V2000
    3.6394   -0.2008    0.0000 C   0  0  0  0  0  0  0  0  0  0  0  0
    2.9249   -0.6133    0.0000 C   0  0  0  0  0  0  0  0  0  0  0  0
    2.5124    0.1012    0.0000 C   0  0  0  0  0  0  0  0  0  0  0  0
    3.3374   -1.3278    0.0000 C   0  0  0  0  0  0  0  0  0  0  0  0
    2.2105   -1.0258    0.0000 C   0  0  0  0  0  0  0  0  0  0  0  0
    1.4960   -0.6133    0.0000 C   0  0  0  0  0  0  0  0  0  0  0  0
    1.4960    0.2117    0.0000 O   0  0  0  0  0  0  0  0  0  0  0  0
    0.7815   -1.0258    0.0000 C   0  0  0  0  0  0  0  0  0  0  0  0
    0.7815   -1.8508    0.0000 C   0  0  0  0  0  0  0  0  0  0  0  0
    0.0670   -2.2633    0.0000 C   0  0  0  0  0  0  0  0  0  0  0  0
    1.4960   -2.2633    0.0000 C   0  0  0  0  0  0  0  0  0  0  0  0
    1.4960   -3.0883    0.0000 S   0  0  0  0  0  0  0  0  0  0  0  0
    2.2105   -3.5008    0.0000 C   0  0  0  0  0  0  0  0  0  0  0  0
    2.2105   -4.3258    0.0000 C   0  0  0  0  0  0  0  0  0  0  0  0
    1.4960   -4.7383    0.0000 C   0  0  0  0  0  0  0  0  0  0  0  0
    2.9249   -4.7383    0.0000 C   0  0  0  0  0  0  0  0  0  0  0  0
    3.6394   -4.3258    0.0000 C   0  0  0  0  0  0  0  0  0  0  0  0
    4.3539   -4.7383    0.0000 O   0  0  0  0  0  0  0  0  0  0  0  0
    3.6394   -3.5008    0.0000 C   0  0  0  0  0  0  0  0  0  0  0  0
    4.3539   -3.0883    0.0000 C   0  0  0  0  0  0  0  0  0  0  0  0
    5.0683   -2.6758    0.0000 C   0  0  0  0  0  0  0  0  0  0  0  0
    3.9414   -2.3738    0.0000 C   0  0  0  0  0  0  0  0  0  0  0  0
    4.7664   -3.8028    0.0000 C   0  0  0  0  0  0  0  0  0  0  0  0
    2.9249   -3.0883    0.0000 C   0  0  0  0  0  0  0  0  0  0  0  0
    2.2105   -1.8508    0.0000 C   0  0  0  0  0  0  0  0  0  0  0  0
  1  2  1  0  0  0  0
  2  3  1  0  0  0  0
  2  4  1  0  0  0  0
  2  5  1  0  0  0  0
  6  5  1  0  0  0  0
  6  7  1  0  0  0  0
  8  6  2  0  0  0  0
  9  8  1  0  0  0  0
  9 10  1  0  0  0  0
 11  9  2  0  0  0  0
 11 12  1  0  0  0  0
 12 13  1  0  0  0  0
 14 13  1  0  0  0  0
 14 15  1  0  0  0  0
 16 14  2  0  0  0  0
 17 16  1  0  0  0  0
 17 18  1  0  0  0  0
 19 17  2  0  0  0  0
 19 20  1  0  0  0  0
 20 21  1  0  0  0  0
 20 22  1  0  0  0  0
 20 23  1  0  0  0  0
 24 19  1  0  0  0  0
 13 24  2  0  0  0  0
 25 11  1  0  0  0  0
  5 25  2  0  0  0  0
M  END
> <ChemID>
100311

> <CAS>
96-69-5

> <Original_SMILES>
CC(C)(C)c1cc(Sc2cc(c(O)cc2C)C(C)(C)C)c(C)cc1O

> <preferred_name>
4,4'-Thiobis(6-tert-butyl-m-cresol)

> <dsstox_substance_id>
DTXSID4021341

> <dsstox_compound_id>
DTXCID301341

> <qc_level>
DSSTox_Low

> <Canonical_QSARr>
CC1C=C(O)C(=CC=1SC1=CC(=C(O)C=C1C)C(C)(C)C)C(C)(C)C

> <InChI_Code_QSARr>
InChI=1S/C22H30O2S/c1-13-9-17(23)15(21(3,4)5)11-19(13)25-20-12-16(22(6,7)8)18(24)10-14(20)2/h9-12,23-24H,1-8H3

> <InChI Key_QSARr>
HXIQYSLFEXIOAV-UHFFFAOYSA-N

> <Salt_Solvent>


> <Salt_Solvent_ID>
0

> <MPID>
100320

> <Tr_1_Tst_0>
1

> <Ready_Biodeg>
0.0

$$$$
Row303
  Mrv171c012251911052D          

 15 15  0  0  0  0            999 V2000
    1.6800   -2.7827    0.0000 C   0  0  0  0  0  0  0  0  0  0  0  0
    2.3945   -2.3702    0.0000 C   0  0  0  0  0  0  0  0  0  0  0  0
    2.3945   -1.5452    0.0000 C   0  0  0  0  0  0  0  0  0  0  0  0
    1.6800   -1.1327    0.0000 C   0  0  0  0  0  0  0  0  0  0  0  0
    1.6800   -0.3077    0.0000 C   0  0  0  0  0  0  0  0  0  0  0  0
    1.6800    0.5173    0.0000 C   0  0  0  0  0  0  0  0  0  0  0  0
    0.8550   -0.3077    0.0000 C   0  0  0  0  0  0  0  0  0  0  0  0
    2.5050   -0.3077    0.0000 C   0  0  0  0  0  0  0  0  0  0  0  0
    0.9655   -1.5452    0.0000 C   0  0  0  0  0  0  0  0  0  0  0  0
    0.9655   -2.3702    0.0000 C   0  0  0  0  0  0  0  0  0  0  0  0
    0.2511   -2.7827    0.0000 C   0  0  0  0  0  0  0  0  0  0  0  0
   -0.4634   -3.1952    0.0000 C   0  0  0  0  0  0  0  0  0  0  0  0
   -0.1614   -2.0682    0.0000 C   0  0  0  0  0  0  0  0  0  0  0  0
    0.6636   -3.4972    0.0000 C   0  0  0  0  0  0  0  0  0  0  0  0
    1.6800   -3.6077    0.0000 O   0  0  0  0  0  0  0  0  0  0  0  0
  2  1  1  0  0  0  0
  3  2  2  0  0  0  0
  4  3  1  0  0  0  0
  4  5  1  0  0  0  0
  5  6  1  0  0  0  0
  5  7  1  0  0  0  0
  5  8  1  0  0  0  0
  9  4  2  0  0  0  0
 10  9  1  0  0  0  0
  1 10  2  0  0  0  0
 10 11  1  0  0  0  0
 11 12  1  0  0  0  0
 11 13  1  0  0  0  0
 11 14  1  0  0  0  0
  1 15  1  0  0  0  0
M  END
> <ChemID>
100312

> <CAS>
96-76-4

> <Original_SMILES>
CC(C)(C)c1cc(ccc1O)C(C)(C)C

> <preferred_name>
2,4-Di-tert-butylphenol

> <dsstox_substance_id>
DTXSID2026602

> <dsstox_compound_id>
DTXCID606602

> <qc_level>
DSSTox_Low

> <Canonical_QSARr>
CC(C)(C)C1C=C(C=CC=1O)C(C)(C)C

> <InChI_Code_QSARr>
InChI=1S/C14H22O/c1-13(2,3)10-7-8-12(15)11(9-10)14(4,5)6/h7-9,15H,1-6H3

> <InChI Key_QSARr>
ICKWICRCANNIBI-UHFFFAOYSA-N

> <Salt_Solvent>


> <Salt_Solvent_ID>
0

> <MPID>
100321

> <Tr_1_Tst_0>
1

> <Ready_Biodeg>
0.0

$$$$
Row304
  Mrv171c012251911052D          

 12 12  0  0  0  0            999 V2000
    2.6240   -1.5145    0.0000 C   0  0  0  0  0  0  0  0  0  0  0  0
    3.3385   -1.1020    0.0000 N   0  0  0  0  0  0  0  0  0  0  0  0
    1.9096   -1.1020    0.0000 C   0  0  0  0  0  0  0  0  0  0  0  0
    1.9096   -0.2770    0.0000 N   0  3  0  0  0  0  0  0  0  0  0  0
    1.1951    0.1355    0.0000 O   0  0  0  0  0  0  0  0  0  0  0  0
    2.6240    0.1355    0.0000 O   0  5  0  0  0  0  0  0  0  0  0  0
    1.1951   -1.5145    0.0000 C   0  0  0  0  0  0  0  0  0  0  0  0
    1.1951   -2.3395    0.0000 C   0  0  0  0  0  0  0  0  0  0  0  0
    0.4806   -2.7520    0.0000 O   0  0  0  0  0  0  0  0  0  0  0  0
    0.4806   -3.5770    0.0000 C   0  0  0  0  0  0  0  0  0  0  0  0
    1.9096   -2.7520    0.0000 C   0  0  0  0  0  0  0  0  0  0  0  0
    2.6240   -2.3395    0.0000 C   0  0  0  0  0  0  0  0  0  0  0  0
  1  2  1  0  0  0  0
  3  1  1  0  0  0  0
  3  4  1  0  0  0  0
  4  5  2  0  0  0  0
  4  6  1  0  0  0  0
  7  3  2  0  0  0  0
  8  7  1  0  0  0  0
  8  9  1  0  0  0  0
  9 10  1  0  0  0  0
 11  8  2  0  0  0  0
 12 11  1  0  0  0  0
  1 12  2  0  0  0  0
M  CHG  2   4   1   6  -1
M  END
> <ChemID>
100313

> <CAS>
96-96-8

> <Original_SMILES>
COc1cc(c(N)cc1)[N+]([O-])=O

> <preferred_name>
4-Methoxy-2-nitroaniline

> <dsstox_substance_id>
DTXSID3044750

> <dsstox_compound_id>
DTXCID1024750

> <qc_level>
DSSTox_Low

> <Canonical_QSARr>
COC1C=C(C(N)=CC=1)[N+]([O-])=O

> <InChI_Code_QSARr>
InChI=1S/C7H8N2O3/c1-12-5-2-3-6(8)7(4-5)9(10)11/h2-4H,8H2,1H3

> <InChI Key_QSARr>
QFMJFXFXQAFGBO-UHFFFAOYSA-N

> <Salt_Solvent>


> <Salt_Solvent_ID>
0

> <MPID>
100322

> <Tr_1_Tst_0>
0

> <Ready_Biodeg>
0.0

$$$$
Row305
  Mrv171c012251911052D          

 13 13  0  0  0  0            999 V2000
    2.6359   -2.9487    0.0000 Cl  0  0  0  0  0  0  0  0  0  0  0  0
    2.6359   -2.1237    0.0000 C   0  0  0  0  0  0  0  0  0  0  0  0
    3.3504   -1.7112    0.0000 C   0  0  0  0  0  0  0  0  0  0  0  0
    3.3504   -0.8862    0.0000 C   0  0  0  0  0  0  0  0  0  0  0  0
    2.6359   -0.4737    0.0000 C   0  0  0  0  0  0  0  0  0  0  0  0
    2.6359    0.3513    0.0000 N   0  3  0  0  0  0  0  0  0  0  0  0
    1.9215    0.7638    0.0000 O   0  5  0  0  0  0  0  0  0  0  0  0
    3.3504    0.7638    0.0000 O   0  0  0  0  0  0  0  0  0  0  0  0
    1.9215   -0.8862    0.0000 C   0  0  0  0  0  0  0  0  0  0  0  0
    1.9215   -1.7112    0.0000 C   0  0  0  0  0  0  0  0  0  0  0  0
    1.2070   -2.1237    0.0000 N   0  3  0  0  0  0  0  0  0  0  0  0
    1.2070   -2.9487    0.0000 O   0  5  0  0  0  0  0  0  0  0  0  0
    0.4925   -1.7112    0.0000 O   0  0  0  0  0  0  0  0  0  0  0  0
  1  2  1  0  0  0  0
  3  2  1  0  0  0  0
  4  3  2  0  0  0  0
  5  4  1  0  0  0  0
  5  6  1  0  0  0  0
  6  7  1  0  0  0  0
  6  8  2  0  0  0  0
  9  5  2  0  0  0  0
 10  9  1  0  0  0  0
  2 10  2  0  0  0  0
 10 11  1  0  0  0  0
 11 12  1  0  0  0  0
 11 13  2  0  0  0  0
M  CHG  4   6   1   7  -1  11   1  12  -1
M  END
> <ChemID>
100314

> <CAS>
97-00-7

> <Original_SMILES>
[O-][N+](=O)c1cc(ccc1Cl)[N+]([O-])=O

> <preferred_name>
1-Chloro-2,4-dinitrobenzene

> <dsstox_substance_id>
DTXSID6020278

> <dsstox_compound_id>
DTXCID00278

> <qc_level>
DSSTox_Low

> <Canonical_QSARr>
[O-][N+](=O)C1C=C(C=CC=1Cl)[N+]([O-])=O

> <InChI_Code_QSARr>
InChI=1S/C6H3ClN2O4/c7-5-2-1-4(8(10)11)3-6(5)9(12)13/h1-3H

> <InChI Key_QSARr>
VYZAHLCBVHPDDF-UHFFFAOYSA-N

> <Salt_Solvent>


> <Salt_Solvent_ID>
0

> <MPID>
100323

> <Tr_1_Tst_0>
1

> <Ready_Biodeg>
0.0

$$$$
Row306
  Mrv171c012251911052D          

 17 18  0  0  0  0            999 V2000
    0.0822   -2.5206    0.0000 O   0  0  0  0  0  0  0  0  0  0  0  0
    0.7967   -2.9331    0.0000 C   0  0  0  0  0  0  0  0  0  0  0  0
    1.5111   -2.5206    0.0000 C   0  0  0  0  0  0  0  0  0  0  0  0
    1.5111   -1.6956    0.0000 C   0  0  0  0  0  0  0  0  0  0  0  0
    2.2256   -1.2831    0.0000 C   0  0  0  0  0  0  0  0  0  0  0  0
    2.9401   -1.6956    0.0000 C   0  0  0  0  0  0  0  0  0  0  0  0
    2.9401   -2.5206    0.0000 O   0  0  0  0  0  0  0  0  0  0  0  0
    3.6545   -1.2831    0.0000 C   0  0  0  0  0  0  0  0  0  0  0  0
    3.6545   -0.4581    0.0000 C   0  0  0  0  0  0  0  0  0  0  0  0
    2.9401   -0.0456    0.0000 C   0  0  0  0  0  0  0  0  0  0  0  0
    2.9401    0.7794    0.0000 Cl  0  0  0  0  0  0  0  0  0  0  0  0
    2.2256   -0.4581    0.0000 C   0  0  0  0  0  0  0  0  0  0  0  0
    2.2256   -2.9331    0.0000 C   0  0  0  0  0  0  0  0  0  0  0  0
    2.2256   -3.7581    0.0000 C   0  0  0  0  0  0  0  0  0  0  0  0
    2.9401   -4.1706    0.0000 Cl  0  0  0  0  0  0  0  0  0  0  0  0
    1.5111   -4.1706    0.0000 C   0  0  0  0  0  0  0  0  0  0  0  0
    0.7967   -3.7581    0.0000 C   0  0  0  0  0  0  0  0  0  0  0  0
  1  2  1  0  0  0  0
  3  2  1  0  0  0  0
  3  4  1  0  0  0  0
  4  5  1  0  0  0  0
  6  5  1  0  0  0  0
  6  7  1  0  0  0  0
  8  6  2  0  0  0  0
  9  8  1  0  0  0  0
 10  9  2  0  0  0  0
 10 11  1  0  0  0  0
 12 10  1  0  0  0  0
  5 12  2  0  0  0  0
 13  3  2  0  0  0  0
 14 13  1  0  0  0  0
 14 15  1  0  0  0  0
 16 14  2  0  0  0  0
 17 16  1  0  0  0  0
  2 17  2  0  0  0  0
M  END
> <ChemID>
100315

> <CAS>
97-23-4

> <Original_SMILES>
Oc1ccc(Cl)cc1Cc1cc(Cl)ccc1O

> <preferred_name>
Dichlorophen

> <dsstox_substance_id>
DTXSID6021824

> <dsstox_compound_id>
DTXCID901824

> <qc_level>
DSSTox_High

> <Canonical_QSARr>
OC1=CC=C(Cl)C=C1CC1=CC(Cl)=CC=C1O

> <InChI_Code_QSARr>
InChI=1S/C13H10Cl2O2/c14-10-1-3-12(16)8(6-10)5-9-7-11(15)2-4-13(9)17/h1-4,6-7,16-17H,5H2

> <InChI Key_QSARr>
MDNWOSOZYLHTCG-UHFFFAOYSA-N

> <Salt_Solvent>


> <Salt_Solvent_ID>
0

> <MPID>
100324

> <Tr_1_Tst_0>
1

> <Ready_Biodeg>
0.0

$$$$
Row307
  Mrv171c012251911052D          

 12 12  0  0  0  0            999 V2000
    2.3437   -1.2130    0.0000 C   0  0  0  0  0  0  0  0  0  0  0  0
    3.0581   -0.8005    0.0000 N   0  0  0  0  0  0  0  0  0  0  0  0
    1.6292   -0.8005    0.0000 C   0  0  0  0  0  0  0  0  0  0  0  0
    1.6292    0.0245    0.0000 O   0  0  0  0  0  0  0  0  0  0  0  0
    0.9147    0.4370    0.0000 C   0  0  0  0  0  0  0  0  0  0  0  0
    0.9147   -1.2130    0.0000 C   0  0  0  0  0  0  0  0  0  0  0  0
    0.9147   -2.0380    0.0000 C   0  0  0  0  0  0  0  0  0  0  0  0
    0.2003   -2.4505    0.0000 N   0  3  0  0  0  0  0  0  0  0  0  0
    0.2003   -3.2755    0.0000 O   0  0  0  0  0  0  0  0  0  0  0  0
   -0.5142   -2.0380    0.0000 O   0  5  0  0  0  0  0  0  0  0  0  0
    1.6292   -2.4505    0.0000 C   0  0  0  0  0  0  0  0  0  0  0  0
    2.3437   -2.0380    0.0000 C   0  0  0  0  0  0  0  0  0  0  0  0
  1  2  1  0  0  0  0
  3  1  1  0  0  0  0
  3  4  1  0  0  0  0
  4  5  1  0  0  0  0
  6  3  2  0  0  0  0
  7  6  1  0  0  0  0
  7  8  1  0  0  0  0
  8  9  2  0  0  0  0
  8 10  1  0  0  0  0
 11  7  2  0  0  0  0
 12 11  1  0  0  0  0
  1 12  2  0  0  0  0
M  CHG  2   8   1  10  -1
M  END
> <ChemID>
100316

> <CAS>
97-52-9

> <Original_SMILES>
COc1cc(ccc1N)[N+]([O-])=O

> <preferred_name>
2-Methoxy-4-nitroaniline

> <dsstox_substance_id>
DTXSID0038700

> <dsstox_compound_id>
DTXCID8018700

> <qc_level>
DSSTox_Low

> <Canonical_QSARr>
COC1=CC(=CC=C1N)[N+]([O-])=O

> <InChI_Code_QSARr>
InChI=1S/C7H8N2O3/c1-12-7-4-5(9(10)11)2-3-6(7)8/h2-4H,8H2,1H3

> <InChI Key_QSARr>
GVBHRNIWBGTNQA-UHFFFAOYSA-N

> <Salt_Solvent>


> <Salt_Solvent_ID>
0

> <MPID>
100325

> <Tr_1_Tst_0>
1

> <Ready_Biodeg>
0.0

$$$$
Row308
  Mrv171c012251911052D          

  7  7  0  0  0  0            999 V2000
    1.8248   -1.5079    0.0000 C   0  0  0  0  0  0  0  0  0  0  0  0
    2.0797   -2.2925    0.0000 C   0  0  0  0  0  0  0  0  0  0  0  0
    2.9047   -2.2925    0.0000 C   0  0  0  0  0  0  0  0  0  0  0  0
    3.1596   -1.5079    0.0000 O   0  0  0  0  0  0  0  0  0  0  0  0
    2.4922   -1.0230    0.0000 C   0  0  0  0  0  0  0  0  0  0  0  0
    2.4922   -0.1980    0.0000 C   0  0  0  0  0  0  0  0  0  0  0  0
    1.7777    0.2145    0.0000 O   0  0  0  0  0  0  0  0  0  0  0  0
  2  1  1  0  0  0  0
  3  2  2  0  0  0  0
  4  3  1  0  0  0  0
  5  4  1  0  0  0  0
  1  5  2  0  0  0  0
  5  6  1  0  0  0  0
  6  7  1  0  0  0  0
M  END
> <ChemID>
100317

> <CAS>
98-00-0

> <Original_SMILES>
OCc1ccco1

> <preferred_name>
Furfuryl alcohol

> <dsstox_substance_id>
DTXSID2025347

> <dsstox_compound_id>
DTXCID105347

> <qc_level>
DSSTox_Low

> <Canonical_QSARr>
OCC1=CC=CO1

> <InChI_Code_QSARr>
InChI=1S/C5H6O2/c6-4-5-2-1-3-7-5/h1-3,6H,4H2

> <InChI Key_QSARr>
XPFVYQJUAUNWIW-UHFFFAOYSA-N

> <Salt_Solvent>


> <Salt_Solvent_ID>
0

> <MPID>
100326

> <Tr_1_Tst_0>
0

> <Ready_Biodeg>
1.0

$$$$
Row309
  Mrv171c012251911052D          

  7  7  0  0  0  0            999 V2000
    2.1693    0.6428    0.0000 O   0  0  0  0  0  0  0  0  0  0  0  0
    1.4548    0.2303    0.0000 C   0  0  0  0  0  0  0  0  0  0  0  0
    1.4548   -0.5947    0.0000 C   0  0  0  0  0  0  0  0  0  0  0  0
    0.7874   -1.0796    0.0000 O   0  0  0  0  0  0  0  0  0  0  0  0
    1.0423   -1.8642    0.0000 C   0  0  0  0  0  0  0  0  0  0  0  0
    1.8673   -1.8642    0.0000 C   0  0  0  0  0  0  0  0  0  0  0  0
    2.1223   -1.0796    0.0000 C   0  0  0  0  0  0  0  0  0  0  0  0
  1  2  2  0  0  0  0
  2  3  1  0  0  0  0
  4  3  1  0  0  0  0
  5  4  1  0  0  0  0
  6  5  2  0  0  0  0
  7  6  1  0  0  0  0
  3  7  2  0  0  0  0
M  END
> <ChemID>
100318

> <CAS>
98-01-1

> <Original_SMILES>
O=Cc1ccco1

> <preferred_name>
Furfural

> <dsstox_substance_id>
DTXSID1020647

> <dsstox_compound_id>
DTXCID50647

> <qc_level>
DSSTox_Low

> <Canonical_QSARr>
O=CC1=CC=CO1

> <InChI_Code_QSARr>
InChI=1S/C5H4O2/c6-4-5-2-1-3-7-5/h1-4H

> <InChI Key_QSARr>
HYBBIBNJHNGZAN-UHFFFAOYSA-N

> <Salt_Solvent>


> <Salt_Solvent_ID>
0

> <MPID>
100327

> <Tr_1_Tst_0>
1

> <Ready_Biodeg>
1.0

$$$$
Row310
  Mrv171c012251911052D          

 10 10  0  0  0  0            999 V2000
    0.8250   -1.6526    0.0000 C   0  0  0  0  0  0  0  0  0  0  0  0
    0.8250   -0.8276    0.0000 C   0  0  0  0  0  0  0  0  0  0  0  0
    0.8250   -0.0026    0.0000 C   0  0  0  0  0  0  0  0  0  0  0  0
   -0.0000   -0.8276    0.0000 C   0  0  0  0  0  0  0  0  0  0  0  0
    1.6500   -0.8276    0.0000 C   0  0  0  0  0  0  0  0  0  0  0  0
    0.1105   -2.0651    0.0000 C   0  0  0  0  0  0  0  0  0  0  0  0
    0.1105   -2.8901    0.0000 C   0  0  0  0  0  0  0  0  0  0  0  0
    0.8250   -3.3026    0.0000 C   0  0  0  0  0  0  0  0  0  0  0  0
    1.5395   -2.8901    0.0000 C   0  0  0  0  0  0  0  0  0  0  0  0
    1.5395   -2.0651    0.0000 C   0  0  0  0  0  0  0  0  0  0  0  0
  1  2  1  0  0  0  0
  2  3  1  0  0  0  0
  2  4  1  0  0  0  0
  2  5  1  0  0  0  0
  6  1  1  0  0  0  0
  7  6  2  0  0  0  0
  8  7  1  0  0  0  0
  9  8  2  0  0  0  0
 10  9  1  0  0  0  0
  1 10  2  0  0  0  0
M  END
> <ChemID>
100319

> <CAS>
98-06-6

> <Original_SMILES>
CC(C)(C)c1ccccc1

> <preferred_name>
tert-Butylbenzene

> <dsstox_substance_id>
DTXSID3047138

> <dsstox_compound_id>
DTXCID1027138

> <qc_level>
DSSTox_Low

> <Canonical_QSARr>
CC(C)(C)C1C=CC=CC=1

> <InChI_Code_QSARr>
InChI=1S/C10H14/c1-10(2,3)9-7-5-4-6-8-9/h4-8H,1-3H3

> <InChI Key_QSARr>
YTZKOQUCBOVLHL-UHFFFAOYSA-N

> <Salt_Solvent>


> <Salt_Solvent_ID>
0

> <MPID>
100328

> <Tr_1_Tst_0>
1

> <Ready_Biodeg>
1.0

$$$$
Row311
  Mrv171c012251911052D          

 10 10  0  0  0  0            999 V2000
    1.5649    0.9089    0.0000 Cl  0  0  0  0  0  0  0  0  0  0  0  0
    1.5649    0.0839    0.0000 C   0  0  0  0  0  0  0  0  0  0  0  0
    0.7399    0.0839    0.0000 Cl  0  0  0  0  0  0  0  0  0  0  0  0
    2.3899    0.0839    0.0000 Cl  0  0  0  0  0  0  0  0  0  0  0  0
    1.5649   -0.7411    0.0000 C   0  0  0  0  0  0  0  0  0  0  0  0
    0.8505   -1.1536    0.0000 C   0  0  0  0  0  0  0  0  0  0  0  0
    0.8505   -1.9786    0.0000 C   0  0  0  0  0  0  0  0  0  0  0  0
    1.5649   -2.3911    0.0000 C   0  0  0  0  0  0  0  0  0  0  0  0
    2.2794   -1.9786    0.0000 C   0  0  0  0  0  0  0  0  0  0  0  0
    2.2794   -1.1536    0.0000 C   0  0  0  0  0  0  0  0  0  0  0  0
  1  2  1  0  0  0  0
  2  3  1  0  0  0  0
  2  4  1  0  0  0  0
  2  5  1  0  0  0  0
  6  5  1  0  0  0  0
  7  6  2  0  0  0  0
  8  7  1  0  0  0  0
  9  8  2  0  0  0  0
 10  9  1  0  0  0  0
  5 10  2  0  0  0  0
M  END
> <ChemID>
100320

> <CAS>
98-07-7

> <Original_SMILES>
ClC(Cl)(Cl)c1ccccc1

> <preferred_name>
Benzotrichloride

> <dsstox_substance_id>
DTXSID1020148

> <dsstox_compound_id>
DTXCID30148

> <qc_level>
DSSTox_Low

> <Canonical_QSARr>
ClC(Cl)(Cl)C1C=CC=CC=1

> <InChI_Code_QSARr>
InChI=1S/C7H5Cl3/c8-7(9,10)6-4-2-1-3-5-6/h1-5H

> <InChI Key_QSARr>
XEMRAKSQROQPBR-UHFFFAOYSA-N

> <Salt_Solvent>


> <Salt_Solvent_ID>
0

> <MPID>
100329

> <Tr_1_Tst_0>
1

> <Ready_Biodeg>
1.0

$$$$
Row312
  Mrv171c012251911052D          

 10 10  0  0  0  0            999 V2000
    1.5649    0.9089    0.0000 F   0  0  0  0  0  0  0  0  0  0  0  0
    1.5649    0.0839    0.0000 C   0  0  0  0  0  0  0  0  0  0  0  0
    1.5649   -0.7411    0.0000 C   0  0  0  0  0  0  0  0  0  0  0  0
    0.8505   -1.1536    0.0000 C   0  0  0  0  0  0  0  0  0  0  0  0
    0.8505   -1.9786    0.0000 C   0  0  0  0  0  0  0  0  0  0  0  0
    1.5649   -2.3911    0.0000 C   0  0  0  0  0  0  0  0  0  0  0  0
    2.2794   -1.9786    0.0000 C   0  0  0  0  0  0  0  0  0  0  0  0
    2.2794   -1.1536    0.0000 C   0  0  0  0  0  0  0  0  0  0  0  0
    0.7399    0.0839    0.0000 F   0  0  0  0  0  0  0  0  0  0  0  0
    2.3899    0.0839    0.0000 F   0  0  0  0  0  0  0  0  0  0  0  0
  1  2  1  0  0  0  0
  2  3  1  0  0  0  0
  4  3  1  0  0  0  0
  5  4  2  0  0  0  0
  6  5  1  0  0  0  0
  7  6  2  0  0  0  0
  8  7  1  0  0  0  0
  3  8  2  0  0  0  0
  2  9  1  0  0  0  0
  2 10  1  0  0  0  0
M  END
> <ChemID>
100321

> <CAS>
98-08-8

> <Original_SMILES>
FC(F)(F)c1ccccc1

> <preferred_name>
Benzotrifluoride

> <dsstox_substance_id>
DTXSID2024589

> <dsstox_compound_id>
DTXCID404589

> <qc_level>
DSSTox_Low

> <Canonical_QSARr>
FC(F)(F)C1C=CC=CC=1

> <InChI_Code_QSARr>
InChI=1S/C7H5F3/c8-7(9,10)6-4-2-1-3-5-6/h1-5H

> <InChI Key_QSARr>
GETTZEONDQJALK-UHFFFAOYSA-N

> <Salt_Solvent>


> <Salt_Solvent_ID>
0

> <MPID>
100330

> <Tr_1_Tst_0>
0

> <Ready_Biodeg>
0.0

$$$$
Row313
  Mrv171c012251911052D          

 10 10  0  0  0  0            999 V2000
    0.7145    1.2375    0.0000 C   0  0  0  0  0  0  0  0  0  0  0  0
    0.7145    2.0625    0.0000 S   0  0  0  0  0  0  0  0  0  0  0  0
    0.7145    2.8875    0.0000 O   0  0  0  0  0  0  0  0  0  0  0  0
   -0.1105    2.0625    0.0000 O   0  0  0  0  0  0  0  0  0  0  0  0
    1.5395    2.0625    0.0000 N   0  0  0  0  0  0  0  0  0  0  0  0
    0.0000    0.8250    0.0000 C   0  0  0  0  0  0  0  0  0  0  0  0
    0.0000   -0.0000    0.0000 C   0  0  0  0  0  0  0  0  0  0  0  0
    0.7145   -0.4125    0.0000 C   0  0  0  0  0  0  0  0  0  0  0  0
    1.4289    0.0000    0.0000 C   0  0  0  0  0  0  0  0  0  0  0  0
    1.4289    0.8250    0.0000 C   0  0  0  0  0  0  0  0  0  0  0  0
  1  2  1  0  0  0  0
  2  3  2  0  0  0  0
  2  4  2  0  0  0  0
  2  5  1  0  0  0  0
  6  1  1  0  0  0  0
  7  6  2  0  0  0  0
  8  7  1  0  0  0  0
  9  8  2  0  0  0  0
 10  9  1  0  0  0  0
  1 10  2  0  0  0  0
M  END
> <ChemID>
100322

> <CAS>
98-10-2

> <Original_SMILES>
NS(=O)(=O)c1ccccc1

> <preferred_name>
Benzenesulfonamide

> <dsstox_substance_id>
DTXSID1059159

> <dsstox_compound_id>
DTXCID8049042

> <qc_level>
Public_High

> <Canonical_QSARr>
NS(=O)(=O)C1C=CC=CC=1

> <InChI_Code_QSARr>
InChI=1S/C6H7NO2S/c7-10(8,9)6-4-2-1-3-5-6/h1-5H,(H2,7,8,9)

> <InChI Key_QSARr>
KHBQMWCZKVMBLN-UHFFFAOYSA-N

> <Salt_Solvent>


> <Salt_Solvent_ID>
0

> <MPID>
100331

> <Tr_1_Tst_0>
1

> <Ready_Biodeg>
0.0

$$$$
Row314
  Mrv171c012251911052D          

 10 10  0  0  0  0            999 V2000
    1.5649    0.9089    0.0000 O   0  0  0  0  0  0  0  0  0  0  0  0
    1.5649    0.0839    0.0000 S   0  0  0  0  0  0  0  0  0  0  0  0
    1.5649   -0.7411    0.0000 C   0  0  0  0  0  0  0  0  0  0  0  0
    0.8505   -1.1536    0.0000 C   0  0  0  0  0  0  0  0  0  0  0  0
    0.8505   -1.9786    0.0000 C   0  0  0  0  0  0  0  0  0  0  0  0
    1.5649   -2.3911    0.0000 C   0  0  0  0  0  0  0  0  0  0  0  0
    2.2794   -1.9786    0.0000 C   0  0  0  0  0  0  0  0  0  0  0  0
    2.2794   -1.1536    0.0000 C   0  0  0  0  0  0  0  0  0  0  0  0
    0.7399    0.0839    0.0000 O   0  0  0  0  0  0  0  0  0  0  0  0
    2.3899    0.0839    0.0000 O   0  0  0  0  0  0  0  0  0  0  0  0
  1  2  2  0  0  0  0
  2  3  1  0  0  0  0
  4  3  1  0  0  0  0
  5  4  2  0  0  0  0
  6  5  1  0  0  0  0
  7  6  2  0  0  0  0
  8  7  1  0  0  0  0
  3  8  2  0  0  0  0
  2  9  1  0  0  0  0
  2 10  2  0  0  0  0
M  END
> <ChemID>
100323

> <CAS>
98-11-3

> <Original_SMILES>
OS(=O)(=O)c1ccccc1

> <preferred_name>
Benzenesulfonic acid

> <dsstox_substance_id>
DTXSID9024568

> <dsstox_compound_id>
DTXCID404568

> <qc_level>
DSSTox_High

> <Canonical_QSARr>
OS(=O)(=O)C1C=CC=CC=1

> <InChI_Code_QSARr>
InChI=1S/C6H6O3S/c7-10(8,9)6-4-2-1-3-5-6/h1-5H,(H,7,8,9)

> <InChI Key_QSARr>
SRSXLGNVWSONIS-UHFFFAOYSA-N

> <Salt_Solvent>


> <Salt_Solvent_ID>
0

> <MPID>
100332

> <Tr_1_Tst_0>
1

> <Ready_Biodeg>
1.0

$$$$
Row315
  Mrv171c012251911052D          

 11 11  0  0  0  0            999 V2000
    3.2481   -2.2887    0.0000 F   0  0  0  0  0  0  0  0  0  0  0  0
    2.5337   -1.8762    0.0000 C   0  0  0  0  0  0  0  0  0  0  0  0
    1.8192   -1.4637    0.0000 C   0  0  0  0  0  0  0  0  0  0  0  0
    1.8192   -0.6387    0.0000 C   0  0  0  0  0  0  0  0  0  0  0  0
    1.1047   -0.2262    0.0000 C   0  0  0  0  0  0  0  0  0  0  0  0
    1.1047    0.5988    0.0000 Cl  0  0  0  0  0  0  0  0  0  0  0  0
    0.3903   -0.6387    0.0000 C   0  0  0  0  0  0  0  0  0  0  0  0
    0.3903   -1.4637    0.0000 C   0  0  0  0  0  0  0  0  0  0  0  0
    1.1047   -1.8762    0.0000 C   0  0  0  0  0  0  0  0  0  0  0  0
    2.9462   -1.1617    0.0000 F   0  0  0  0  0  0  0  0  0  0  0  0
    2.1212   -2.5907    0.0000 F   0  0  0  0  0  0  0  0  0  0  0  0
  1  2  1  0  0  0  0
  2  3  1  0  0  0  0
  4  3  1  0  0  0  0
  5  4  2  0  0  0  0
  5  6  1  0  0  0  0
  7  5  1  0  0  0  0
  8  7  2  0  0  0  0
  9  8  1  0  0  0  0
  3  9  2  0  0  0  0
  2 10  1  0  0  0  0
  2 11  1  0  0  0  0
M  END
> <ChemID>
100324

> <CAS>
98-15-7

> <Original_SMILES>
FC(F)(F)c1cccc(Cl)c1

> <preferred_name>
3-Chlorobenzotrifluoride

> <dsstox_substance_id>
DTXSID4024773

> <dsstox_compound_id>
DTXCID104773

> <qc_level>
DSSTox_Low

> <Canonical_QSARr>
FC(F)(F)C1C=C(Cl)C=CC=1

> <InChI_Code_QSARr>
InChI=1S/C7H4ClF3/c8-6-3-1-2-5(4-6)7(9,10)11/h1-4H

> <InChI Key_QSARr>
YTCGOUNVIAWCMG-UHFFFAOYSA-N

> <Salt_Solvent>


> <Salt_Solvent_ID>
0

> <MPID>
100333

> <Tr_1_Tst_0>
1

> <Ready_Biodeg>
0.0

$$$$
Row316
  Mrv171c012251911052D          

 13 13  0  0  0  0            999 V2000
    2.1419   -2.2130    0.0000 C   0  0  0  0  0  0  0  0  0  0  0  0
    2.8564   -2.6255    0.0000 S   0  0  0  0  0  0  0  0  0  0  0  0
    3.5709   -3.0380    0.0000 O   0  0  0  0  0  0  0  0  0  0  0  0
    3.2689   -1.9110    0.0000 O   0  0  0  0  0  0  0  0  0  0  0  0
    2.4439   -3.3400    0.0000 O   0  0  0  0  0  0  0  0  0  0  0  0
    2.1419   -1.3880    0.0000 C   0  0  0  0  0  0  0  0  0  0  0  0
    1.4275   -0.9755    0.0000 C   0  0  0  0  0  0  0  0  0  0  0  0
    1.4275   -0.1505    0.0000 N   0  3  0  0  0  0  0  0  0  0  0  0
    0.7130    0.2620    0.0000 O   0  0  0  0  0  0  0  0  0  0  0  0
    2.1419    0.2620    0.0000 O   0  5  0  0  0  0  0  0  0  0  0  0
    0.7130   -1.3880    0.0000 C   0  0  0  0  0  0  0  0  0  0  0  0
    0.7130   -2.2130    0.0000 C   0  0  0  0  0  0  0  0  0  0  0  0
    1.4275   -2.6255    0.0000 C   0  0  0  0  0  0  0  0  0  0  0  0
  1  2  1  0  0  0  0
  2  3  2  0  0  0  0
  2  4  1  0  0  0  0
  2  5  2  0  0  0  0
  6  1  1  0  0  0  0
  7  6  2  0  0  0  0
  7  8  1  0  0  0  0
  8  9  2  0  0  0  0
  8 10  1  0  0  0  0
 11  7  1  0  0  0  0
 12 11  2  0  0  0  0
 13 12  1  0  0  0  0
  1 13  2  0  0  0  0
M  CHG  2   8   1  10  -1
M  END
> <ChemID>
100325

> <CAS>
98-47-5

> <Original_SMILES>
[O-][N+](=O)c1cc(ccc1)S(O)(=O)=O

> <preferred_name>
3-Nitrobenzenesulfonic acid

> <dsstox_substance_id>
DTXSID3048079

> <dsstox_compound_id>
DTXCID8028050

> <qc_level>
DSSTox_Low

> <Canonical_QSARr>
[O-][N+](=O)C1=CC(=CC=C1)S(O)(=O)=O

> <InChI_Code_QSARr>
InChI=1S/C6H5NO5S/c8-7(9)5-2-1-3-6(4-5)13(10,11)12/h1-4H,(H,10,11,12)

> <InChI Key_QSARr>
ONMOULMPIIOVTQ-UHFFFAOYSA-N

> <Salt_Solvent>


> <Salt_Solvent_ID>
0

> <MPID>
100334

> <Tr_1_Tst_0>
0

> <Ready_Biodeg>
0.0

$$$$
Row317
  Mrv171c012251911052D          

 14 14  0  0  0  0            999 V2000
    2.4021   -1.6904    0.0000 C   0  0  0  0  0  0  0  0  0  0  0  0
    3.1166   -2.1029    0.0000 S   0  0  0  0  0  0  0  0  0  0  0  0
    3.8311   -2.5154    0.0000 O   0  0  0  0  0  0  0  0  0  0  0  0
    3.5291   -1.3885    0.0000 O   0  0  0  0  0  0  0  0  0  0  0  0
    2.7041   -2.8174    0.0000 O   0  0  0  0  0  0  0  0  0  0  0  0
    2.4021   -0.8654    0.0000 C   0  0  0  0  0  0  0  0  0  0  0  0
    1.6877   -0.4529    0.0000 C   0  0  0  0  0  0  0  0  0  0  0  0
    1.6877    0.3721    0.0000 S   0  0  0  0  0  0  0  0  0  0  0  0
    1.6877    1.1971    0.0000 O   0  0  0  0  0  0  0  0  0  0  0  0
    2.5127    0.3721    0.0000 O   0  0  0  0  0  0  0  0  0  0  0  0
    0.8627    0.3721    0.0000 O   0  0  0  0  0  0  0  0  0  0  0  0
    0.9732   -0.8654    0.0000 C   0  0  0  0  0  0  0  0  0  0  0  0
    0.9732   -1.6904    0.0000 C   0  0  0  0  0  0  0  0  0  0  0  0
    1.6877   -2.1029    0.0000 C   0  0  0  0  0  0  0  0  0  0  0  0
  1  2  1  0  0  0  0
  2  3  2  0  0  0  0
  2  4  1  0  0  0  0
  2  5  2  0  0  0  0
  6  1  1  0  0  0  0
  7  6  2  0  0  0  0
  7  8  1  0  0  0  0
  8  9  2  0  0  0  0
  8 10  1  0  0  0  0
  8 11  2  0  0  0  0
 12  7  1  0  0  0  0
 13 12  2  0  0  0  0
 14 13  1  0  0  0  0
  1 14  2  0  0  0  0
M  END
> <ChemID>
100326

> <CAS>
98-48-6

> <Original_SMILES>
OS(=O)(=O)c1cc(ccc1)S(O)(=O)=O

> <preferred_name>
Benzene-1,3-disulfonic acid

> <dsstox_substance_id>
DTXSID8045060

> <dsstox_compound_id>
DTXCID6025060

> <qc_level>
DSSTox_High

> <Canonical_QSARr>
OS(=O)(=O)C1C=C(C=CC=1)S(O)(=O)=O

> <InChI_Code_QSARr>
InChI=1S/C6H6O6S2/c7-13(8,9)5-2-1-3-6(4-5)14(10,11)12/h1-4H,(H,7,8,9)(H,10,11,12)

> <InChI Key_QSARr>
WRUAHXANJKHFIL-UHFFFAOYSA-N

> <Salt_Solvent>


> <Salt_Solvent_ID>
0

> <MPID>
100335

> <Tr_1_Tst_0>
1

> <Ready_Biodeg>
0.0

$$$$
Row318
  Mrv171c012251911052D          

 11 11  0  0  0  0            999 V2000
    2.1750   -1.1250    0.0000 C   0  0  0  0  0  0  0  0  0  0  0  0
    2.1750   -1.9500    0.0000 C   0  0  0  0  0  0  0  0  0  0  0  0
    2.1750   -2.7750    0.0000 C   0  0  0  0  0  0  0  0  0  0  0  0
    3.0000   -1.9500    0.0000 C   0  0  0  0  0  0  0  0  0  0  0  0
    1.3500   -1.9500    0.0000 C   0  0  0  0  0  0  0  0  0  0  0  0
    2.8895   -0.7125    0.0000 C   0  0  0  0  0  0  0  0  0  0  0  0
    2.8895    0.1125    0.0000 C   0  0  0  0  0  0  0  0  0  0  0  0
    2.1750    0.5250    0.0000 C   0  0  0  0  0  0  0  0  0  0  0  0
    2.1750    1.3500    0.0000 C   0  0  0  0  0  0  0  0  0  0  0  0
    1.4606    0.1125    0.0000 C   0  0  0  0  0  0  0  0  0  0  0  0
    1.4606   -0.7125    0.0000 C   0  0  0  0  0  0  0  0  0  0  0  0
  1  2  1  0  0  0  0
  2  3  1  0  0  0  0
  2  4  1  0  0  0  0
  2  5  1  0  0  0  0
  6  1  1  0  0  0  0
  7  6  2  0  0  0  0
  8  7  1  0  0  0  0
  8  9  1  0  0  0  0
 10  8  2  0  0  0  0
 11 10  1  0  0  0  0
  1 11  2  0  0  0  0
M  END
> <ChemID>
100327

> <CAS>
98-51-1

> <Original_SMILES>
Cc1ccc(cc1)C(C)(C)C

> <preferred_name>
4-tert-Butyltoluene

> <dsstox_substance_id>
DTXSID1024704

> <dsstox_compound_id>
DTXCID404704

> <qc_level>
DSSTox_Low

> <Canonical_QSARr>
CC1C=CC(=CC=1)C(C)(C)C

> <InChI_Code_QSARr>
InChI=1S/C11H16/c1-9-5-7-10(8-6-9)11(2,3)4/h5-8H,1-4H3

> <InChI Key_QSARr>
QCWXDVFBZVHKLV-UHFFFAOYSA-N

> <Salt_Solvent>


> <Salt_Solvent_ID>
0

> <MPID>
100336

> <Tr_1_Tst_0>
1

> <Ready_Biodeg>
1.0

$$$$
Row319
  Mrv171c012251911052D          

 11 11  0  0  0  0            999 V2000
    2.1750   -1.9500    0.0000 C   0  0  0  0  0  0  0  0  0  0  0  0
    2.1750   -2.7750    0.0000 C   0  0  0  0  0  0  0  0  0  0  0  0
    3.0000   -1.9500    0.0000 C   0  0  0  0  0  0  0  0  0  0  0  0
    1.3500   -1.9500    0.0000 C   0  0  0  0  0  0  0  0  0  0  0  0
    2.1750   -1.1250    0.0000 C   0  0  0  0  0  0  0  0  0  0  0  0
    2.8895   -0.7125    0.0000 C   0  0  0  0  0  0  0  0  0  0  0  0
    2.8895    0.1125    0.0000 C   0  0  0  0  0  0  0  0  0  0  0  0
    2.1750    0.5250    0.0000 C   0  0  0  0  0  0  0  0  0  0  0  0
    2.1750    1.3500    0.0000 O   0  0  0  0  0  0  0  0  0  0  0  0
    1.4606    0.1125    0.0000 C   0  0  0  0  0  0  0  0  0  0  0  0
    1.4606   -0.7125    0.0000 C   0  0  0  0  0  0  0  0  0  0  0  0
  1  2  1  0  0  0  0
  1  3  1  0  0  0  0
  1  4  1  0  0  0  0
  1  5  1  0  0  0  0
  6  5  1  0  0  0  0
  7  6  2  0  0  0  0
  8  7  1  0  0  0  0
  8  9  1  0  0  0  0
 10  8  2  0  0  0  0
 11 10  1  0  0  0  0
  5 11  2  0  0  0  0
M  END
> <ChemID>
100328

> <CAS>
98-54-4

> <Original_SMILES>
CC(C)(C)c1ccc(O)cc1

> <preferred_name>
4-tert-Butylphenol

> <dsstox_substance_id>
DTXSID1020221

> <dsstox_compound_id>
DTXCID90221

> <qc_level>
DSSTox_Low

> <Canonical_QSARr>
CC(C)(C)C1C=CC(O)=CC=1

> <InChI_Code_QSARr>
InChI=1S/C10H14O/c1-10(2,3)8-4-6-9(11)7-5-8/h4-7,11H,1-3H3

> <InChI Key_QSARr>
QHPQWRBYOIRBIT-UHFFFAOYSA-N

> <Salt_Solvent>


> <Salt_Solvent_ID>
0

> <MPID>
100337

> <Tr_1_Tst_0>
1

> <Ready_Biodeg>
0.0

$$$$
Row320
  Mrv171c012251911052D          

 11 11  0  0  0  0            999 V2000
    3.4287   -1.6259    0.0000 C   0  0  0  0  0  0  0  0  0  0  0  0
    3.4287   -2.4509    0.0000 C   0  0  0  0  0  0  0  0  0  0  0  0
    3.4287   -3.2759    0.0000 O   0  0  0  0  0  0  0  0  0  0  0  0
    4.2537   -2.4509    0.0000 C   0  0  0  0  0  0  0  0  0  0  0  0
    2.6037   -2.4509    0.0000 C   0  0  0  0  0  0  0  0  0  0  0  0
    4.1432   -1.2134    0.0000 C   0  0  0  0  0  0  0  0  0  0  0  0
    4.1432   -0.3884    0.0000 C   0  0  0  0  0  0  0  0  0  0  0  0
    3.4287    0.0241    0.0000 C   0  0  0  0  0  0  0  0  0  0  0  0
    3.4287    0.8491    0.0000 C   0  0  0  0  0  0  0  0  0  0  0  0
    2.7143   -0.3884    0.0000 C   0  0  0  0  0  0  0  0  0  0  0  0
    2.7143   -1.2134    0.0000 C   0  0  0  0  0  0  0  0  0  0  0  0
  1  2  1  0  0  0  0
  2  3  1  0  0  0  0
  2  4  1  0  0  0  0
  2  5  1  0  0  0  0
  6  1  1  0  0  0  0
  7  6  1  0  0  0  0
  8  7  1  0  0  0  0
  8  9  1  0  0  0  0
 10  8  2  0  0  0  0
 11 10  1  0  0  0  0
  1 11  1  0  0  0  0
M  END
> <ChemID>
100329

> <CAS>
98-55-5|10482-56-1

> <Original_SMILES>
CC1CCC(CC=1)C(C)(C)O

> <preferred_name>
alpha-Terpineol|(L)-alpha-Terpineol

> <dsstox_substance_id>
DTXSID5026625|DTXSID5052672

> <dsstox_compound_id>
DTXCID406625|DTXCID2031245

> <qc_level>
DSSTox_High

> <Canonical_QSARr>
CC1CCC(CC=1)C(C)(C)O

> <InChI_Code_QSARr>
InChI=1S/C10H18O/c1-8-4-6-9(7-5-8)10(2,3)11/h4,9,11H,5-7H2,1-3H3

> <InChI Key_QSARr>
WUOACPNHFRMFPN-UHFFFAOYSA-N

> <Salt_Solvent>


> <Salt_Solvent_ID>
0

> <MPID>
100338|101113

> <Tr_1_Tst_0>
0

> <Ready_Biodeg>
1.0

$$$$
Row321
  Mrv171c012251911052D          

 11 11  0  0  0  0            999 V2000
    2.9109   -2.4061    0.0000 C   0  0  0  0  0  0  0  0  0  0  0  0
    2.9109   -3.2311    0.0000 S   0  0  0  0  0  0  0  0  0  0  0  0
    2.9109   -4.0561    0.0000 O   0  0  0  0  0  0  0  0  0  0  0  0
    3.7359   -3.2311    0.0000 O   0  0  0  0  0  0  0  0  0  0  0  0
    2.0859   -3.2311    0.0000 Cl  0  0  0  0  0  0  0  0  0  0  0  0
    3.6254   -1.9936    0.0000 C   0  0  0  0  0  0  0  0  0  0  0  0
    3.6254   -1.1686    0.0000 C   0  0  0  0  0  0  0  0  0  0  0  0
    2.9109   -0.7561    0.0000 C   0  0  0  0  0  0  0  0  0  0  0  0
    2.9109    0.0689    0.0000 C   0  0  0  0  0  0  0  0  0  0  0  0
    2.1965   -1.1686    0.0000 C   0  0  0  0  0  0  0  0  0  0  0  0
    2.1965   -1.9936    0.0000 C   0  0  0  0  0  0  0  0  0  0  0  0
  1  2  1  0  0  0  0
  2  3  2  0  0  0  0
  2  4  2  0  0  0  0
  2  5  1  0  0  0  0
  6  1  2  0  0  0  0
  7  6  1  0  0  0  0
  8  7  2  0  0  0  0
  8  9  1  0  0  0  0
 10  8  1  0  0  0  0
 11 10  2  0  0  0  0
  1 11  1  0  0  0  0
M  END
> <ChemID>
100330

> <CAS>
98-59-9

> <Original_SMILES>
Cc1ccc(cc1)S(=O)(=O)Cl

> <preferred_name>
p-Toluenesulfonyl chloride

> <dsstox_substance_id>
DTXSID1052660

> <dsstox_compound_id>
DTXCID8031233

> <qc_level>
DSSTox_Low

> <Canonical_QSARr>
CC1=CC=C(C=C1)S(=O)(=O)Cl

> <InChI_Code_QSARr>
InChI=1S/C7H7ClO2S/c1-6-2-4-7(5-3-6)11(8,9)10/h2-5H,1H3

> <InChI Key_QSARr>
YYROPELSRYBVMQ-UHFFFAOYSA-N

> <Salt_Solvent>


> <Salt_Solvent_ID>
0

> <MPID>
100339

> <Tr_1_Tst_0>
1

> <Ready_Biodeg>
1.0

$$$$
Row322
  Mrv171c012251911052D          

 11 11  0  0  0  0            999 V2000
    1.8867   -2.4081    0.0000 S   0  0  0  0  0  0  0  0  0  0  0  0
    1.8867   -3.2331    0.0000 O   0  0  0  0  0  0  0  0  0  0  0  0
    2.7117   -2.4081    0.0000 O   0  0  0  0  0  0  0  0  0  0  0  0
    1.0617   -2.4081    0.0000 O   0  0  0  0  0  0  0  0  0  0  0  0
    1.8867   -1.5831    0.0000 C   0  0  0  0  0  0  0  0  0  0  0  0
    2.6012   -1.1706    0.0000 C   0  0  0  0  0  0  0  0  0  0  0  0
    2.6012   -0.3456    0.0000 C   0  0  0  0  0  0  0  0  0  0  0  0
    1.8867    0.0669    0.0000 C   0  0  0  0  0  0  0  0  0  0  0  0
    1.8867    0.8919    0.0000 Cl  0  0  0  0  0  0  0  0  0  0  0  0
    1.1722   -0.3456    0.0000 C   0  0  0  0  0  0  0  0  0  0  0  0
    1.1722   -1.1706    0.0000 C   0  0  0  0  0  0  0  0  0  0  0  0
  1  2  1  0  0  0  0
  1  3  2  0  0  0  0
  1  4  2  0  0  0  0
  1  5  1  0  0  0  0
  6  5  1  0  0  0  0
  7  6  2  0  0  0  0
  8  7  1  0  0  0  0
  8  9  1  0  0  0  0
 10  8  2  0  0  0  0
 11 10  1  0  0  0  0
  5 11  2  0  0  0  0
M  END
> <ChemID>
100331

> <CAS>
98-66-8

> <Original_SMILES>
OS(=O)(=O)c1ccc(Cl)cc1

> <preferred_name>
4-Chlorobenzenesulfonic acid

> <dsstox_substance_id>
DTXSID7044473

> <dsstox_compound_id>
DTXCID5024473

> <qc_level>
DSSTox_Low

> <Canonical_QSARr>
OS(=O)(=O)C1C=CC(Cl)=CC=1

> <InChI_Code_QSARr>
InChI=1S/C6H5ClO3S/c7-5-1-3-6(4-2-5)11(8,9)10/h1-4H,(H,8,9,10)

> <InChI Key_QSARr>
RJWBTWIBUIGANW-UHFFFAOYSA-N

> <Salt_Solvent>


> <Salt_Solvent_ID>
0

> <MPID>
100340

> <Tr_1_Tst_0>
1

> <Ready_Biodeg>
1.0

$$$$
Row323
  Mrv171c012251911052D          

 11 11  0  0  0  0            999 V2000
    1.8774   -2.4061    0.0000 S   0  0  0  0  0  0  0  0  0  0  0  0
    1.8774   -3.2311    0.0000 O   0  0  0  0  0  0  0  0  0  0  0  0
    2.7024   -2.4061    0.0000 O   0  0  0  0  0  0  0  0  0  0  0  0
    1.0524   -2.4061    0.0000 O   0  0  0  0  0  0  0  0  0  0  0  0
    1.8774   -1.5811    0.0000 C   0  0  0  0  0  0  0  0  0  0  0  0
    2.5918   -1.1686    0.0000 C   0  0  0  0  0  0  0  0  0  0  0  0
    2.5918   -0.3436    0.0000 C   0  0  0  0  0  0  0  0  0  0  0  0
    1.8774    0.0689    0.0000 C   0  0  0  0  0  0  0  0  0  0  0  0
    1.8774    0.8939    0.0000 O   0  0  0  0  0  0  0  0  0  0  0  0
    1.1629   -0.3436    0.0000 C   0  0  0  0  0  0  0  0  0  0  0  0
    1.1629   -1.1686    0.0000 C   0  0  0  0  0  0  0  0  0  0  0  0
  1  2  1  0  0  0  0
  1  3  2  0  0  0  0
  1  4  2  0  0  0  0
  1  5  1  0  0  0  0
  6  5  1  0  0  0  0
  7  6  2  0  0  0  0
  8  7  1  0  0  0  0
  8  9  1  0  0  0  0
 10  8  2  0  0  0  0
 11 10  1  0  0  0  0
  5 11  2  0  0  0  0
M  END
> <ChemID>
100332

> <CAS>
98-67-9

> <Original_SMILES>
Oc1ccc(cc1)S(O)(=O)=O

> <preferred_name>
4-Phenolsulfonic acid

> <dsstox_substance_id>
DTXSID1046421

> <dsstox_compound_id>
DTXCID9026421

> <qc_level>
DSSTox_Low

> <Canonical_QSARr>
OC1C=CC(=CC=1)S(O)(=O)=O

> <InChI_Code_QSARr>
InChI=1S/C6H6O4S/c7-5-1-3-6(4-2-5)11(8,9)10/h1-4,7H,(H,8,9,10)

> <InChI Key_QSARr>
FEPBITJSIHRMRT-UHFFFAOYSA-N

> <Salt_Solvent>


> <Salt_Solvent_ID>
0

> <MPID>
100341

> <Tr_1_Tst_0>
1

> <Ready_Biodeg>
1.0

$$$$
Row324
  Mrv171c012251911052D          

 13 13  0  0  0  0            999 V2000
    2.3461   -2.6030    0.0000 C   0  0  0  0  0  0  0  0  0  0  0  0
    1.6316   -3.0155    0.0000 O   0  0  0  0  0  0  0  0  0  0  0  0
    2.3461   -1.7780    0.0000 C   0  0  0  0  0  0  0  0  0  0  0  0
    3.0606   -1.3655    0.0000 C   0  0  0  0  0  0  0  0  0  0  0  0
    3.0606   -0.5405    0.0000 C   0  0  0  0  0  0  0  0  0  0  0  0
    2.3461   -0.1280    0.0000 C   0  0  0  0  0  0  0  0  0  0  0  0
    2.3461    0.6970    0.0000 C   0  0  0  0  0  0  0  0  0  0  0  0
    2.3461    1.5220    0.0000 C   0  0  0  0  0  0  0  0  0  0  0  0
    3.1711    0.6970    0.0000 C   0  0  0  0  0  0  0  0  0  0  0  0
    1.5211    0.6970    0.0000 C   0  0  0  0  0  0  0  0  0  0  0  0
    1.6316   -0.5405    0.0000 C   0  0  0  0  0  0  0  0  0  0  0  0
    1.6316   -1.3655    0.0000 C   0  0  0  0  0  0  0  0  0  0  0  0
    3.0606   -3.0155    0.0000 O   0  0  0  0  0  0  0  0  0  0  0  0
  1  2  1  0  0  0  0
  1  3  1  0  0  0  0
  4  3  1  0  0  0  0
  5  4  2  0  0  0  0
  6  5  1  0  0  0  0
  6  7  1  0  0  0  0
  7  8  1  0  0  0  0
  7  9  1  0  0  0  0
  7 10  1  0  0  0  0
 11  6  2  0  0  0  0
 12 11  1  0  0  0  0
  3 12  2  0  0  0  0
  1 13  2  0  0  0  0
M  END
> <ChemID>
100333

> <CAS>
98-73-7

> <Original_SMILES>
CC(C)(C)c1ccc(cc1)C(O)=O

> <preferred_name>
4-tert-Butylbenzoic acid

> <dsstox_substance_id>
DTXSID0040703

> <dsstox_compound_id>
DTXCID8020703

> <qc_level>
DSSTox_High

> <Canonical_QSARr>
CC(C)(C)C1C=CC(=CC=1)C(O)=O

> <InChI_Code_QSARr>
InChI=1S/C11H14O2/c1-11(2,3)9-6-4-8(5-7-9)10(12)13/h4-7H,1-3H3,(H,12,13)

> <InChI Key_QSARr>
KDVYCTOWXSLNNI-UHFFFAOYSA-N

> <Salt_Solvent>


> <Salt_Solvent_ID>
0

> <MPID>
100342

> <Tr_1_Tst_0>
0

> <Ready_Biodeg>
0.0

$$$$
Row325
  Mrv171c012251911052D          

  9  9  0  0  0  0            999 V2000
    2.1337   -0.9436    0.0000 C   0  0  0  0  0  0  0  0  0  0  0  0
    1.4193   -0.5311    0.0000 C   0  0  0  0  0  0  0  0  0  0  0  0
    1.4193    0.2939    0.0000 C   0  0  0  0  0  0  0  0  0  0  0  0
    0.7048    0.7064    0.0000 C   0  0  0  0  0  0  0  0  0  0  0  0
    2.1337    0.7064    0.0000 C   0  0  0  0  0  0  0  0  0  0  0  0
    0.7048   -0.9436    0.0000 C   0  0  0  0  0  0  0  0  0  0  0  0
    0.7048   -1.7686    0.0000 C   0  0  0  0  0  0  0  0  0  0  0  0
    1.4193   -2.1811    0.0000 C   0  0  0  0  0  0  0  0  0  0  0  0
    2.1337   -1.7686    0.0000 C   0  0  0  0  0  0  0  0  0  0  0  0
  2  1  1  0  0  0  0
  2  3  1  0  0  0  0
  3  4  1  0  0  0  0
  3  5  1  0  0  0  0
  6  2  2  0  0  0  0
  7  6  1  0  0  0  0
  8  7  2  0  0  0  0
  9  8  1  0  0  0  0
  1  9  2  0  0  0  0
M  END
> <ChemID>
100334

> <CAS>
98-82-8

> <Original_SMILES>
CC(C)c1ccccc1

> <preferred_name>
Cumene

> <dsstox_substance_id>
DTXSID1021827

> <dsstox_compound_id>
DTXCID101827

> <qc_level>
DSSTox_High

> <Canonical_QSARr>
CC(C)C1C=CC=CC=1

> <InChI_Code_QSARr>
InChI=1S/C9H12/c1-8(2)9-6-4-3-5-7-9/h3-8H,1-2H3

> <InChI Key_QSARr>
RWGFKTVRMDUZSP-UHFFFAOYSA-N

> <Salt_Solvent>


> <Salt_Solvent_ID>
0

> <MPID>
100343

> <Tr_1_Tst_0>
1

> <Ready_Biodeg>
1.0

$$$$
Row326
  Mrv171c012251911052D          

  9  9  0  0  0  0            999 V2000
    1.4193    0.2939    0.0000 C   0  0  0  0  0  0  0  0  0  0  0  0
    1.4193   -0.5311    0.0000 C   0  0  0  0  0  0  0  0  0  0  0  0
    0.7048   -0.9436    0.0000 C   0  0  0  0  0  0  0  0  0  0  0  0
    0.7048   -1.7686    0.0000 C   0  0  0  0  0  0  0  0  0  0  0  0
    1.4193   -2.1811    0.0000 C   0  0  0  0  0  0  0  0  0  0  0  0
    2.1337   -1.7686    0.0000 C   0  0  0  0  0  0  0  0  0  0  0  0
    2.1337   -0.9436    0.0000 C   0  0  0  0  0  0  0  0  0  0  0  0
    0.7048    0.7064    0.0000 C   0  0  0  0  0  0  0  0  0  0  0  0
    2.1337    0.7064    0.0000 C   0  0  0  0  0  0  0  0  0  0  0  0
  1  2  1  0  0  0  0
  3  2  1  0  0  0  0
  4  3  2  0  0  0  0
  5  4  1  0  0  0  0
  6  5  2  0  0  0  0
  7  6  1  0  0  0  0
  2  7  2  0  0  0  0
  1  8  2  0  0  0  0
  1  9  1  0  0  0  0
M  END
> <ChemID>
100335

> <CAS>
98-83-9

> <Original_SMILES>
CC(=C)c1ccccc1

> <preferred_name>
alpha-Methylstyrene

> <dsstox_substance_id>
DTXSID9025661

> <dsstox_compound_id>
DTXCID905661

> <qc_level>
DSSTox_Low

> <Canonical_QSARr>
CC(=C)C1C=CC=CC=1

> <InChI_Code_QSARr>
InChI=1S/C9H10/c1-8(2)9-6-4-3-5-7-9/h3-7H,1H2,2H3

> <InChI Key_QSARr>
XYLMUPLGERFSHI-UHFFFAOYSA-N

> <Salt_Solvent>


> <Salt_Solvent_ID>
0

> <MPID>
100344

> <Tr_1_Tst_0>
1

> <Ready_Biodeg>
0.0

$$$$
Row327
  Mrv171c012251911052D          

  9  9  0  0  0  0            999 V2000
    1.4193   -2.1811    0.0000 C   0  0  0  0  0  0  0  0  0  0  0  0
    2.1337   -1.7686    0.0000 C   0  0  0  0  0  0  0  0  0  0  0  0
    2.1337   -0.9436    0.0000 C   0  0  0  0  0  0  0  0  0  0  0  0
    1.4193   -0.5311    0.0000 C   0  0  0  0  0  0  0  0  0  0  0  0
    1.4193    0.2939    0.0000 C   0  0  0  0  0  0  0  0  0  0  0  0
    0.7048    0.7064    0.0000 C   0  0  0  0  0  0  0  0  0  0  0  0
    2.1337    0.7064    0.0000 O   0  0  0  0  0  0  0  0  0  0  0  0
    0.7048   -0.9436    0.0000 C   0  0  0  0  0  0  0  0  0  0  0  0
    0.7048   -1.7686    0.0000 C   0  0  0  0  0  0  0  0  0  0  0  0
  2  1  1  0  0  0  0
  3  2  2  0  0  0  0
  4  3  1  0  0  0  0
  4  5  1  0  0  0  0
  5  6  1  0  0  0  0
  5  7  1  0  0  0  0
  8  4  2  0  0  0  0
  9  8  1  0  0  0  0
  1  9  2  0  0  0  0
M  END
> <ChemID>
100336

> <CAS>
98-85-1

> <Original_SMILES>
CC(O)c1ccccc1

> <preferred_name>
alpha-Methylbenzyl alcohol

> <dsstox_substance_id>
DTXSID1020859

> <dsstox_compound_id>
DTXCID50859

> <qc_level>
DSSTox_Low

> <Canonical_QSARr>
CC(O)C1C=CC=CC=1

> <InChI_Code_QSARr>
InChI=1S/C8H10O/c1-7(9)8-5-3-2-4-6-8/h2-7,9H,1H3

> <InChI Key_QSARr>
WAPNOHKVXSQRPX-UHFFFAOYSA-N

> <Salt_Solvent>


> <Salt_Solvent_ID>
0

> <MPID>
100345

> <Tr_1_Tst_0>
1

> <Ready_Biodeg>
1.0

$$$$
Row328
  Mrv171c012251911052D          

  9  9  0  0  0  0            999 V2000
    1.5821   -0.3257    0.0000 C   0  0  0  0  0  0  0  0  0  0  0  0
    1.5821   -1.1507    0.0000 C   0  0  0  0  0  0  0  0  0  0  0  0
    0.8676   -1.5632    0.0000 C   0  0  0  0  0  0  0  0  0  0  0  0
    0.8676   -2.3882    0.0000 C   0  0  0  0  0  0  0  0  0  0  0  0
    1.5821   -2.8007    0.0000 C   0  0  0  0  0  0  0  0  0  0  0  0
    2.2966   -2.3882    0.0000 C   0  0  0  0  0  0  0  0  0  0  0  0
    2.2966   -1.5632    0.0000 C   0  0  0  0  0  0  0  0  0  0  0  0
    0.8676    0.0868    0.0000 O   0  0  0  0  0  0  0  0  0  0  0  0
    2.2966    0.0868    0.0000 C   0  0  0  0  0  0  0  0  0  0  0  0
  1  2  1  0  0  0  0
  3  2  1  0  0  0  0
  4  3  2  0  0  0  0
  5  4  1  0  0  0  0
  6  5  2  0  0  0  0
  7  6  1  0  0  0  0
  2  7  2  0  0  0  0
  1  8  2  0  0  0  0
  1  9  1  0  0  0  0
M  END
> <ChemID>
100337

> <CAS>
98-86-2

> <Original_SMILES>
CC(=O)c1ccccc1

> <preferred_name>
Acetophenone

> <dsstox_substance_id>
DTXSID6021828

> <dsstox_compound_id>
DTXCID501828

> <qc_level>
DSSTox_Low

> <Canonical_QSARr>
CC(=O)C1C=CC=CC=1

> <InChI_Code_QSARr>
InChI=1S/C8H8O/c1-7(9)8-5-3-2-4-6-8/h2-6H,1H3

> <InChI Key_QSARr>
KWOLFJPFCHCOCG-UHFFFAOYSA-N

> <Salt_Solvent>


> <Salt_Solvent_ID>
0

> <MPID>
100346

> <Tr_1_Tst_0>
0

> <Ready_Biodeg>
1.0

$$$$
Row329
  Mrv171c012251911052D          

  9  9  0  0  0  0            999 V2000
    1.4193   -0.5311    0.0000 C   0  0  0  0  0  0  0  0  0  0  0  0
    1.4193    0.2939    0.0000 C   0  0  0  0  0  0  0  0  0  0  0  0
    2.1337    0.7064    0.0000 Cl  0  0  0  0  0  0  0  0  0  0  0  0
    0.7048    0.7064    0.0000 Cl  0  0  0  0  0  0  0  0  0  0  0  0
    0.7048   -0.9436    0.0000 C   0  0  0  0  0  0  0  0  0  0  0  0
    0.7048   -1.7686    0.0000 C   0  0  0  0  0  0  0  0  0  0  0  0
    1.4193   -2.1811    0.0000 C   0  0  0  0  0  0  0  0  0  0  0  0
    2.1337   -1.7686    0.0000 C   0  0  0  0  0  0  0  0  0  0  0  0
    2.1337   -0.9436    0.0000 C   0  0  0  0  0  0  0  0  0  0  0  0
  1  2  1  0  0  0  0
  2  3  1  0  0  0  0
  2  4  1  0  0  0  0
  5  1  1  0  0  0  0
  6  5  2  0  0  0  0
  7  6  1  0  0  0  0
  8  7  2  0  0  0  0
  9  8  1  0  0  0  0
  1  9  2  0  0  0  0
M  END
> <ChemID>
100338

> <CAS>
98-87-3

> <Original_SMILES>
ClC(Cl)c1ccccc1

> <preferred_name>
Benzal chloride

> <dsstox_substance_id>
DTXSID6025014

> <dsstox_compound_id>
DTXCID405014

> <qc_level>
DSSTox_Low

> <Canonical_QSARr>
ClC(Cl)C1C=CC=CC=1

> <InChI_Code_QSARr>
InChI=1S/C7H6Cl2/c8-7(9)6-4-2-1-3-5-6/h1-5,7H

> <InChI Key_QSARr>
CAHQGWAXKLQREW-UHFFFAOYSA-N

> <Salt_Solvent>


> <Salt_Solvent_ID>
0

> <MPID>
100347

> <Tr_1_Tst_0>
1

> <Ready_Biodeg>
1.0

$$$$
Row330
  Mrv171c012251911052D          

  9  9  0  0  0  0            999 V2000
    2.1337    0.7064    0.0000 O   0  0  0  0  0  0  0  0  0  0  0  0
    1.4193    0.2939    0.0000 N   0  3  0  0  0  0  0  0  0  0  0  0
    0.7048    0.7064    0.0000 O   0  5  0  0  0  0  0  0  0  0  0  0
    1.4193   -0.5311    0.0000 C   0  0  0  0  0  0  0  0  0  0  0  0
    0.7048   -0.9436    0.0000 C   0  0  0  0  0  0  0  0  0  0  0  0
    0.7048   -1.7686    0.0000 C   0  0  0  0  0  0  0  0  0  0  0  0
    1.4193   -2.1811    0.0000 C   0  0  0  0  0  0  0  0  0  0  0  0
    2.1337   -1.7686    0.0000 C   0  0  0  0  0  0  0  0  0  0  0  0
    2.1337   -0.9436    0.0000 C   0  0  0  0  0  0  0  0  0  0  0  0
  1  2  2  0  0  0  0
  2  3  1  0  0  0  0
  2  4  1  0  0  0  0
  5  4  1  0  0  0  0
  6  5  2  0  0  0  0
  7  6  1  0  0  0  0
  8  7  2  0  0  0  0
  9  8  1  0  0  0  0
  4  9  2  0  0  0  0
M  CHG  2   2   1   3  -1
M  END
> <ChemID>
100339

> <CAS>
98-95-3

> <Original_SMILES>
[O-][N+](=O)c1ccccc1

> <preferred_name>
Nitrobenzene

> <dsstox_substance_id>
DTXSID3020964

> <dsstox_compound_id>
DTXCID30964

> <qc_level>
DSSTox_Low

> <Canonical_QSARr>
[O-][N+](=O)C1C=CC=CC=1

> <InChI_Code_QSARr>
InChI=1S/C6H5NO2/c8-7(9)6-4-2-1-3-5-6/h1-5H

> <InChI Key_QSARr>
LQNUZADURLCDLV-UHFFFAOYSA-N

> <Salt_Solvent>


> <Salt_Solvent_ID>
0

> <MPID>
100348

> <Tr_1_Tst_0>
1

> <Ready_Biodeg>
0.0

$$$$
Row331
  Mrv171c012251911052D          

  9  9  0  0  0  0            999 V2000
    4.3952    1.5125    0.0000 O   0  0  0  0  0  0  0  0  0  0  0  0
    3.6808    1.1000    0.0000 C   0  0  0  0  0  0  0  0  0  0  0  0
    3.6808    0.2750    0.0000 C   0  0  0  0  0  0  0  0  0  0  0  0
    2.9663   -0.1375    0.0000 C   0  0  0  0  0  0  0  0  0  0  0  0
    2.9663   -0.9625    0.0000 N   0  0  0  0  0  0  0  0  0  0  0  0
    3.6808   -1.3750    0.0000 C   0  0  0  0  0  0  0  0  0  0  0  0
    4.3952   -0.9625    0.0000 C   0  0  0  0  0  0  0  0  0  0  0  0
    4.3952   -0.1375    0.0000 N   0  0  0  0  0  0  0  0  0  0  0  0
    2.9663    1.5125    0.0000 O   0  0  0  0  0  0  0  0  0  0  0  0
  1  2  1  0  0  0  0
  2  3  1  0  0  0  0
  4  3  1  0  0  0  0
  5  4  2  0  0  0  0
  6  5  1  0  0  0  0
  7  6  2  0  0  0  0
  8  7  1  0  0  0  0
  3  8  2  0  0  0  0
  2  9  2  0  0  0  0
M  END
> <ChemID>
100340

> <CAS>
98-97-5

> <Original_SMILES>
OC(=O)c1c[n]cc[n]1

> <preferred_name>
Pyrazinoic acid

> <dsstox_substance_id>
DTXSID30243367

> <dsstox_compound_id>
DTXCID30165858

> <qc_level>
Public_Medium

> <Canonical_QSARr>
OC(=O)C1C=NC=CN=1

> <InChI_Code_QSARr>
InChI=1S/C5H4N2O2/c8-5(9)4-3-6-1-2-7-4/h1-3H,(H,8,9)

> <InChI Key_QSARr>
NIPZZXUFJPQHNH-UHFFFAOYSA-N

> <Salt_Solvent>


> <Salt_Solvent_ID>
0

> <MPID>
100349

> <Tr_1_Tst_0>
1

> <Ready_Biodeg>
1.0

$$$$
Row332
  Mrv171c012251911052D          

  9  9  0  0  0  0            999 V2000
    1.4661   -2.1811    0.0000 C   0  0  0  0  0  0  0  0  0  0  0  0
    2.1806   -1.7686    0.0000 C   0  0  0  0  0  0  0  0  0  0  0  0
    2.1806   -0.9436    0.0000 N   0  0  0  0  0  0  0  0  0  0  0  0
    1.4661   -0.5311    0.0000 C   0  0  0  0  0  0  0  0  0  0  0  0
    1.4661    0.2939    0.0000 C   0  0  0  0  0  0  0  0  0  0  0  0
    0.7517    0.7064    0.0000 O   0  0  0  0  0  0  0  0  0  0  0  0
    2.1806    0.7064    0.0000 O   0  0  0  0  0  0  0  0  0  0  0  0
    0.7517   -0.9436    0.0000 C   0  0  0  0  0  0  0  0  0  0  0  0
    0.7517   -1.7686    0.0000 C   0  0  0  0  0  0  0  0  0  0  0  0
  2  1  1  0  0  0  0
  3  2  2  0  0  0  0
  4  3  1  0  0  0  0
  4  5  1  0  0  0  0
  5  6  2  0  0  0  0
  5  7  1  0  0  0  0
  8  4  2  0  0  0  0
  9  8  1  0  0  0  0
  1  9  2  0  0  0  0
M  END
> <ChemID>
100341

> <CAS>
98-98-6

> <Original_SMILES>
OC(=O)c1cccc[n]1

> <preferred_name>
Picolinic acid

> <dsstox_substance_id>
DTXSID7031903

> <dsstox_compound_id>
DTXCID5011903

> <qc_level>
DSSTox_Low

> <Canonical_QSARr>
OC(=O)C1=CC=CC=N1

> <InChI_Code_QSARr>
InChI=1S/C6H5NO2/c8-6(9)5-3-1-2-4-7-5/h1-4H,(H,8,9)

> <InChI Key_QSARr>
SIOXPEMLGUPBBT-UHFFFAOYSA-N

> <Salt_Solvent>


> <Salt_Solvent_ID>
0

> <MPID>
100350

> <Tr_1_Tst_0>
0

> <Ready_Biodeg>
1.0

$$$$
Row333
  Mrv171c012251911052D          

 10 10  0  0  0  0            999 V2000
   -0.0769   -1.5735    0.0000 O   0  0  0  0  0  0  0  0  0  0  0  0
    0.6376   -1.9860    0.0000 C   0  0  0  0  0  0  0  0  0  0  0  0
    0.6376   -2.8110    0.0000 O   0  0  0  0  0  0  0  0  0  0  0  0
    1.3521   -1.5735    0.0000 C   0  0  0  0  0  0  0  0  0  0  0  0
    2.0665   -1.9860    0.0000 C   0  0  0  0  0  0  0  0  0  0  0  0
    2.7810   -1.5735    0.0000 C   0  0  0  0  0  0  0  0  0  0  0  0
    2.7810   -0.7485    0.0000 C   0  0  0  0  0  0  0  0  0  0  0  0
    2.0665   -0.3360    0.0000 C   0  0  0  0  0  0  0  0  0  0  0  0
    2.0665    0.4890    0.0000 C   0  0  0  0  0  0  0  0  0  0  0  0
    1.3521   -0.7485    0.0000 C   0  0  0  0  0  0  0  0  0  0  0  0
  1  2  2  0  0  0  0
  2  3  1  0  0  0  0
  2  4  1  0  0  0  0
  5  4  1  0  0  0  0
  6  5  2  0  0  0  0
  7  6  1  0  0  0  0
  8  7  2  0  0  0  0
  8  9  1  0  0  0  0
 10  8  1  0  0  0  0
  4 10  2  0  0  0  0
M  END
> <ChemID>
100342

> <CAS>
99-04-7

> <Original_SMILES>
Cc1cc(ccc1)C(O)=O

> <preferred_name>
3-Methylbenzoic acid

> <dsstox_substance_id>
DTXSID1021617

> <dsstox_compound_id>
DTXCID401617

> <qc_level>
DSSTox_Low

> <Canonical_QSARr>
CC1C=C(C=CC=1)C(O)=O

> <InChI_Code_QSARr>
InChI=1S/C8H8O2/c1-6-3-2-4-7(5-6)8(9)10/h2-5H,1H3,(H,9,10)

> <InChI Key_QSARr>
GPSDUZXPYCFOSQ-UHFFFAOYSA-N

> <Salt_Solvent>


> <Salt_Solvent_ID>
0

> <MPID>
100351

> <Tr_1_Tst_0>
1

> <Ready_Biodeg>
1.0

$$$$
Row334
  Mrv171c012251911052D          

 10 10  0  0  0  0            999 V2000
    1.4289   -0.0000    0.0000 C   0  0  0  0  0  0  0  0  0  0  0  0
    1.4289    0.8250    0.0000 C   0  0  0  0  0  0  0  0  0  0  0  0
    0.7145    1.2375    0.0000 C   0  0  0  0  0  0  0  0  0  0  0  0
    0.7145    2.0625    0.0000 N   0  0  0  0  0  0  0  0  0  0  0  0
   -0.0000    0.8250    0.0000 C   0  0  0  0  0  0  0  0  0  0  0  0
   -0.0000   -0.0000    0.0000 C   0  0  0  0  0  0  0  0  0  0  0  0
   -0.7145   -0.4125    0.0000 C   0  0  0  0  0  0  0  0  0  0  0  0
   -0.7145   -1.2375    0.0000 O   0  0  0  0  0  0  0  0  0  0  0  0
   -1.4289    0.0000    0.0000 O   0  0  0  0  0  0  0  0  0  0  0  0
    0.7145   -0.4125    0.0000 C   0  0  0  0  0  0  0  0  0  0  0  0
  2  1  1  0  0  0  0
  3  2  2  0  0  0  0
  3  4  1  0  0  0  0
  5  3  1  0  0  0  0
  6  5  2  0  0  0  0
  6  7  1  0  0  0  0
  7  8  1  0  0  0  0
  7  9  2  0  0  0  0
 10  6  1  0  0  0  0
  1 10  2  0  0  0  0
M  END
> <ChemID>
100343

> <CAS>
99-05-8

> <Original_SMILES>
Nc1cc(ccc1)C(O)=O

> <preferred_name>
Benzoic acid, 3-amino-

> <dsstox_substance_id>
DTXSID3059183

> <dsstox_compound_id>
DTXCID8049092

> <qc_level>
Public_High

> <Canonical_QSARr>
NC1C=C(C=CC=1)C(O)=O

> <InChI_Code_QSARr>
InChI=1S/C7H7NO2/c8-6-3-1-2-5(4-6)7(9)10/h1-4H,8H2,(H,9,10)

> <InChI Key_QSARr>
XFDUHJPVQKIXHO-UHFFFAOYSA-N

> <Salt_Solvent>


> <Salt_Solvent_ID>
0

> <MPID>
100352

> <Tr_1_Tst_0>
1

> <Ready_Biodeg>
0.0

$$$$
Row335
  Mrv171c012251911052D          

 10 10  0  0  0  0            999 V2000
   -0.0775   -1.5730    0.0000 O   0  0  0  0  0  0  0  0  0  0  0  0
    0.6370   -1.9855    0.0000 C   0  0  0  0  0  0  0  0  0  0  0  0
    0.6370   -2.8105    0.0000 O   0  0  0  0  0  0  0  0  0  0  0  0
    1.3514   -1.5730    0.0000 C   0  0  0  0  0  0  0  0  0  0  0  0
    2.0659   -1.9855    0.0000 C   0  0  0  0  0  0  0  0  0  0  0  0
    2.7804   -1.5730    0.0000 C   0  0  0  0  0  0  0  0  0  0  0  0
    2.7804   -0.7480    0.0000 C   0  0  0  0  0  0  0  0  0  0  0  0
    2.0659   -0.3355    0.0000 C   0  0  0  0  0  0  0  0  0  0  0  0
    2.0659    0.4895    0.0000 O   0  0  0  0  0  0  0  0  0  0  0  0
    1.3514   -0.7480    0.0000 C   0  0  0  0  0  0  0  0  0  0  0  0
  1  2  2  0  0  0  0
  2  3  1  0  0  0  0
  2  4  1  0  0  0  0
  5  4  1  0  0  0  0
  6  5  2  0  0  0  0
  7  6  1  0  0  0  0
  8  7  2  0  0  0  0
  8  9  1  0  0  0  0
 10  8  1  0  0  0  0
  4 10  2  0  0  0  0
M  END
> <ChemID>
100344

> <CAS>
99-06-9

> <Original_SMILES>
Oc1cccc(c1)C(O)=O

> <preferred_name>
3-Hydroxybenzoic acid

> <dsstox_substance_id>
DTXSID6021610

> <dsstox_compound_id>
DTXCID601610

> <qc_level>
DSSTox_Low

> <Canonical_QSARr>
OC1C=C(C=CC=1)C(O)=O

> <InChI_Code_QSARr>
InChI=1S/C7H6O3/c8-6-3-1-2-5(4-6)7(9)10/h1-4,8H,(H,9,10)

> <InChI Key_QSARr>
IJFXRHURBJZNAO-UHFFFAOYSA-N

> <Salt_Solvent>


> <Salt_Solvent_ID>
0

> <MPID>
100353

> <Tr_1_Tst_0>
1

> <Ready_Biodeg>
1.0

$$$$
Row336
  Mrv171c012251911052D          

 10 10  0  0  0  0            999 V2000
    0.0338   -2.6052    0.0000 C   0  0  0  0  0  0  0  0  0  0  0  0
    0.7483   -2.1927    0.0000 C   0  0  0  0  0  0  0  0  0  0  0  0
    1.4628   -2.6052    0.0000 C   0  0  0  0  0  0  0  0  0  0  0  0
    2.1772   -2.1927    0.0000 C   0  0  0  0  0  0  0  0  0  0  0  0
    2.1772   -1.3677    0.0000 C   0  0  0  0  0  0  0  0  0  0  0  0
    1.4628   -0.9552    0.0000 C   0  0  0  0  0  0  0  0  0  0  0  0
    1.4628   -0.1302    0.0000 N   0  3  0  0  0  0  0  0  0  0  0  0
    0.7483    0.2823    0.0000 O   0  5  0  0  0  0  0  0  0  0  0  0
    2.1772    0.2823    0.0000 O   0  0  0  0  0  0  0  0  0  0  0  0
    0.7483   -1.3677    0.0000 C   0  0  0  0  0  0  0  0  0  0  0  0
  1  2  1  0  0  0  0
  3  2  1  0  0  0  0
  4  3  2  0  0  0  0
  5  4  1  0  0  0  0
  6  5  2  0  0  0  0
  6  7  1  0  0  0  0
  7  8  1  0  0  0  0
  7  9  2  0  0  0  0
 10  6  1  0  0  0  0
  2 10  2  0  0  0  0
M  CHG  2   7   1   8  -1
M  END
> <ChemID>
100345

> <CAS>
99-08-1

> <Original_SMILES>
Cc1cc(ccc1)[N+]([O-])=O

> <preferred_name>
3-Nitrotoluene

> <dsstox_substance_id>
DTXSID5021831

> <dsstox_compound_id>
DTXCID001831

> <qc_level>
DSSTox_Low

> <Canonical_QSARr>
CC1=CC(=CC=C1)[N+]([O-])=O

> <InChI_Code_QSARr>
InChI=1S/C7H7NO2/c1-6-3-2-4-7(5-6)8(9)10/h2-5H,1H3

> <InChI Key_QSARr>
QZYHIOPPLUPUJF-UHFFFAOYSA-N

> <Salt_Solvent>


> <Salt_Solvent_ID>
0

> <MPID>
100354

> <Tr_1_Tst_0>
0

> <Ready_Biodeg>
0.0

$$$$
Row337
  Mrv171c012251911052D          

 10 10  0  0  0  0            999 V2000
    2.2482   -1.9860    0.0000 N   0  3  0  0  0  0  0  0  0  0  0  0
    1.5337   -1.5735    0.0000 C   0  0  0  0  0  0  0  0  0  0  0  0
    1.5337   -0.7485    0.0000 C   0  0  0  0  0  0  0  0  0  0  0  0
    0.8192   -0.3360    0.0000 C   0  0  0  0  0  0  0  0  0  0  0  0
    0.8192    0.4890    0.0000 N   0  0  0  0  0  0  0  0  0  0  0  0
    0.1048   -0.7485    0.0000 C   0  0  0  0  0  0  0  0  0  0  0  0
    0.1048   -1.5735    0.0000 C   0  0  0  0  0  0  0  0  0  0  0  0
    0.8192   -1.9860    0.0000 C   0  0  0  0  0  0  0  0  0  0  0  0
    2.9627   -1.5735    0.0000 O   0  5  0  0  0  0  0  0  0  0  0  0
    2.2482   -2.8110    0.0000 O   0  0  0  0  0  0  0  0  0  0  0  0
  1  2  1  0  0  0  0
  3  2  1  0  0  0  0
  4  3  2  0  0  0  0
  4  5  1  0  0  0  0
  6  4  1  0  0  0  0
  7  6  2  0  0  0  0
  8  7  1  0  0  0  0
  2  8  2  0  0  0  0
  1  9  1  0  0  0  0
  1 10  2  0  0  0  0
M  CHG  2   1   1   9  -1
M  END
> <ChemID>
100346

> <CAS>
99-09-2

> <Original_SMILES>
Nc1cc(ccc1)[N+]([O-])=O

> <preferred_name>
3-Nitroaniline

> <dsstox_substance_id>
DTXSID6025725

> <dsstox_compound_id>
DTXCID505725

> <qc_level>
DSSTox_High

> <Canonical_QSARr>
NC1=CC(=CC=C1)[N+]([O-])=O

> <InChI_Code_QSARr>
InChI=1S/C6H6N2O2/c7-5-2-1-3-6(4-5)8(9)10/h1-4H,7H2

> <InChI Key_QSARr>
XJCVRTZCHMZPBD-UHFFFAOYSA-N

> <Salt_Solvent>


> <Salt_Solvent_ID>
0

> <MPID>
100355

> <Tr_1_Tst_0>
1

> <Ready_Biodeg>
0.0

$$$$
Row338
  Mrv171c012251911052D          

 12 12  0  0  0  0            999 V2000
    3.1031   -2.9744    0.0000 O   0  0  0  0  0  0  0  0  0  0  0  0
    3.1031   -2.1494    0.0000 N   0  3  0  0  0  0  0  0  0  0  0  0
    3.8175   -1.7369    0.0000 O   0  5  0  0  0  0  0  0  0  0  0  0
    2.3886   -1.7369    0.0000 C   0  0  0  0  0  0  0  0  0  0  0  0
    2.3886   -0.9119    0.0000 C   0  0  0  0  0  0  0  0  0  0  0  0
    1.6741   -0.4994    0.0000 C   0  0  0  0  0  0  0  0  0  0  0  0
    1.6741    0.3256    0.0000 Cl  0  0  0  0  0  0  0  0  0  0  0  0
    0.9597   -0.9119    0.0000 C   0  0  0  0  0  0  0  0  0  0  0  0
    0.2452   -0.4994    0.0000 N   0  0  0  0  0  0  0  0  0  0  0  0
    0.9597   -1.7369    0.0000 C   0  0  0  0  0  0  0  0  0  0  0  0
    0.2452   -2.1494    0.0000 Cl  0  0  0  0  0  0  0  0  0  0  0  0
    1.6741   -2.1494    0.0000 C   0  0  0  0  0  0  0  0  0  0  0  0
  1  2  2  0  0  0  0
  2  3  1  0  0  0  0
  2  4  1  0  0  0  0
  5  4  1  0  0  0  0
  6  5  2  0  0  0  0
  6  7  1  0  0  0  0
  8  6  1  0  0  0  0
  8  9  1  0  0  0  0
 10  8  2  0  0  0  0
 10 11  1  0  0  0  0
 12 10  1  0  0  0  0
  4 12  2  0  0  0  0
M  CHG  2   2   1   3  -1
M  END
> <ChemID>
100347

> <CAS>
99-30-9

> <Original_SMILES>
Nc1c(Cl)cc(cc1Cl)[N+]([O-])=O

> <preferred_name>
Dicloran

> <dsstox_substance_id>
DTXSID2020426

> <dsstox_compound_id>
DTXCID60426

> <qc_level>
DSSTox_Low

> <Canonical_QSARr>
NC1C(Cl)=CC(=CC=1Cl)[N+]([O-])=O

> <InChI_Code_QSARr>
InChI=1S/C6H4Cl2N2O2/c7-4-1-3(10(11)12)2-5(8)6(4)9/h1-2H,9H2

> <InChI Key_QSARr>
BIXZHMJUSMUDOQ-UHFFFAOYSA-N

> <Salt_Solvent>


> <Salt_Solvent_ID>
0

> <MPID>
100356

> <Tr_1_Tst_0>
1

> <Ready_Biodeg>
0.0

$$$$
Row339
  Mrv171c012251911052D          

 15 15  0  0  0  0            999 V2000
    1.4289    0.8250    0.0000 C   0  0  0  0  0  0  0  0  0  0  0  0
    0.7145    1.2375    0.0000 C   0  0  0  0  0  0  0  0  0  0  0  0
    0.7145    2.0625    0.0000 N   0  3  0  0  0  0  0  0  0  0  0  0
    1.4289    2.4750    0.0000 O   0  5  0  0  0  0  0  0  0  0  0  0
   -0.0000    2.4750    0.0000 O   0  0  0  0  0  0  0  0  0  0  0  0
   -0.0000    0.8250    0.0000 C   0  0  0  0  0  0  0  0  0  0  0  0
   -0.0000    0.0000    0.0000 C   0  0  0  0  0  0  0  0  0  0  0  0
   -0.7145   -0.4125    0.0000 N   0  3  0  0  0  0  0  0  0  0  0  0
   -0.7145   -1.2375    0.0000 O   0  5  0  0  0  0  0  0  0  0  0  0
   -1.4289    0.0000    0.0000 O   0  0  0  0  0  0  0  0  0  0  0  0
    0.7145   -0.4125    0.0000 C   0  0  0  0  0  0  0  0  0  0  0  0
    1.4289   -0.0000    0.0000 C   0  0  0  0  0  0  0  0  0  0  0  0
    2.1434   -0.4125    0.0000 C   0  0  0  0  0  0  0  0  0  0  0  0
    2.8579   -0.0000    0.0000 O   0  0  0  0  0  0  0  0  0  0  0  0
    2.1434   -1.2375    0.0000 O   0  0  0  0  0  0  0  0  0  0  0  0
  2  1  1  0  0  0  0
  2  3  1  0  0  0  0
  3  4  1  0  0  0  0
  3  5  2  0  0  0  0
  6  2  2  0  0  0  0
  7  6  1  0  0  0  0
  7  8  1  0  0  0  0
  8  9  1  0  0  0  0
  8 10  2  0  0  0  0
 11  7  2  0  0  0  0
 12 11  1  0  0  0  0
  1 12  2  0  0  0  0
 12 13  1  0  0  0  0
 13 14  1  0  0  0  0
 13 15  2  0  0  0  0
M  CHG  4   3   1   4  -1   8   1   9  -1
M  END
> <ChemID>
100348

> <CAS>
99-34-3

> <Original_SMILES>
[O-][N+](=O)c1cc(cc(c1)[N+]([O-])=O)C(O)=O

> <preferred_name>
3,5-Dinitrobenzoic acid

> <dsstox_substance_id>
DTXSID7059195

> <dsstox_compound_id>
DTXCID5049104

> <qc_level>
Public_High

> <Canonical_QSARr>
[O-][N+](=O)C1C=C(C=C(C=1)[N+]([O-])=O)C(O)=O

> <InChI_Code_QSARr>
InChI=1S/C7H4N2O6/c10-7(11)4-1-5(8(12)13)3-6(2-4)9(14)15/h1-3H,(H,10,11)

> <InChI Key_QSARr>
VYWYYJYRVSBHJQ-UHFFFAOYSA-N

> <Salt_Solvent>


> <Salt_Solvent_ID>
0

> <MPID>
100357

> <Tr_1_Tst_0>
1

> <Ready_Biodeg>
0.0

$$$$
Row340
  Mrv171c012251911052D          

 11 11  0  0  0  0            999 V2000
    1.8890   -1.8209    0.0000 C   0  0  0  0  0  0  0  0  0  0  0  0
    1.8890   -2.6459    0.0000 C   0  0  0  0  0  0  0  0  0  0  0  0
    1.1745   -3.0584    0.0000 O   0  0  0  0  0  0  0  0  0  0  0  0
    2.6034   -3.0584    0.0000 O   0  0  0  0  0  0  0  0  0  0  0  0
    2.6034   -1.4084    0.0000 C   0  0  0  0  0  0  0  0  0  0  0  0
    2.6034   -0.5834    0.0000 C   0  0  0  0  0  0  0  0  0  0  0  0
    1.8890   -0.1709    0.0000 C   0  0  0  0  0  0  0  0  0  0  0  0
    1.8890    0.6541    0.0000 O   0  0  0  0  0  0  0  0  0  0  0  0
    1.1745   -0.5834    0.0000 C   0  0  0  0  0  0  0  0  0  0  0  0
    0.4600   -0.1709    0.0000 O   0  0  0  0  0  0  0  0  0  0  0  0
    1.1745   -1.4084    0.0000 C   0  0  0  0  0  0  0  0  0  0  0  0
  1  2  1  0  0  0  0
  2  3  2  0  0  0  0
  2  4  1  0  0  0  0
  5  1  1  0  0  0  0
  6  5  2  0  0  0  0
  7  6  1  0  0  0  0
  7  8  1  0  0  0  0
  9  7  2  0  0  0  0
  9 10  1  0  0  0  0
 11  9  1  0  0  0  0
  1 11  2  0  0  0  0
M  END
> <ChemID>
100349

> <CAS>
99-50-3

> <Original_SMILES>
Oc1cc(ccc1O)C(O)=O

> <preferred_name>
3,4-Dihydroxybenzoic acid

> <dsstox_substance_id>
DTXSID4021212

> <dsstox_compound_id>
DTXCID601212

> <qc_level>
DSSTox_Low

> <Canonical_QSARr>
OC1C=C(C=CC=1O)C(O)=O

> <InChI_Code_QSARr>
InChI=1S/C7H6O4/c8-5-2-1-4(7(10)11)3-6(5)9/h1-3,8-9H,(H,10,11)

> <InChI Key_QSARr>
YQUVCSBJEUQKSH-UHFFFAOYSA-N

> <Salt_Solvent>


> <Salt_Solvent_ID>
0

> <MPID>
100358

> <Tr_1_Tst_0>
0

> <Ready_Biodeg>
1.0

$$$$
Row341
  Mrv171c012251911052D          

 11 11  0  0  0  0            999 V2000
    3.0507   -2.0835    0.0000 N   0  3  0  0  0  0  0  0  0  0  0  0
    2.3362   -1.6710    0.0000 C   0  0  0  0  0  0  0  0  0  0  0  0
    2.3362   -0.8460    0.0000 C   0  0  0  0  0  0  0  0  0  0  0  0
    1.6217   -0.4335    0.0000 C   0  0  0  0  0  0  0  0  0  0  0  0
    1.6217    0.3915    0.0000 Cl  0  0  0  0  0  0  0  0  0  0  0  0
    0.9073   -0.8460    0.0000 C   0  0  0  0  0  0  0  0  0  0  0  0
    0.1928   -0.4335    0.0000 Cl  0  0  0  0  0  0  0  0  0  0  0  0
    0.9073   -1.6710    0.0000 C   0  0  0  0  0  0  0  0  0  0  0  0
    1.6217   -2.0835    0.0000 C   0  0  0  0  0  0  0  0  0  0  0  0
    3.7651   -1.6710    0.0000 O   0  5  0  0  0  0  0  0  0  0  0  0
    3.0507   -2.9085    0.0000 O   0  0  0  0  0  0  0  0  0  0  0  0
  1  2  1  0  0  0  0
  3  2  1  0  0  0  0
  4  3  2  0  0  0  0
  4  5  1  0  0  0  0
  6  4  1  0  0  0  0
  6  7  1  0  0  0  0
  8  6  2  0  0  0  0
  9  8  1  0  0  0  0
  2  9  2  0  0  0  0
  1 10  1  0  0  0  0
  1 11  2  0  0  0  0
M  CHG  2   1   1  10  -1
M  END
> <ChemID>
100350

> <CAS>
99-54-7

> <Original_SMILES>
[O-][N+](=O)c1cc(Cl)c(Cl)cc1

> <preferred_name>
3,4-Dichloronitrobenzene

> <dsstox_substance_id>
DTXSID8024999

> <dsstox_compound_id>
DTXCID504999

> <qc_level>
DSSTox_Low

> <Canonical_QSARr>
[O-][N+](=O)C1C=C(Cl)C(Cl)=CC=1

> <InChI_Code_QSARr>
InChI=1S/C6H3Cl2NO2/c7-5-2-1-4(9(10)11)3-6(5)8/h1-3H

> <InChI Key_QSARr>
NTBYINQTYWZXLH-UHFFFAOYSA-N

> <Salt_Solvent>


> <Salt_Solvent_ID>
0

> <MPID>
100359

> <Tr_1_Tst_0>
1

> <Ready_Biodeg>
0.0

$$$$
Row342
  Mrv171c012251911052D          

 12 12  0  0  0  0            999 V2000
    2.1162   -2.3778    0.0000 C   0  0  0  0  0  0  0  0  0  0  0  0
    2.8307   -2.7903    0.0000 N   0  3  0  0  0  0  0  0  0  0  0  0
    2.8307   -3.6153    0.0000 O   0  0  0  0  0  0  0  0  0  0  0  0
    3.5452   -2.3778    0.0000 O   0  5  0  0  0  0  0  0  0  0  0  0
    2.1162   -1.5528    0.0000 C   0  0  0  0  0  0  0  0  0  0  0  0
    1.4018   -1.1403    0.0000 C   0  0  0  0  0  0  0  0  0  0  0  0
    1.4018   -0.3153    0.0000 N   0  3  0  0  0  0  0  0  0  0  0  0
    0.6873    0.0972    0.0000 O   0  0  0  0  0  0  0  0  0  0  0  0
    2.1162    0.0972    0.0000 O   0  5  0  0  0  0  0  0  0  0  0  0
    0.6873   -1.5528    0.0000 C   0  0  0  0  0  0  0  0  0  0  0  0
    0.6873   -2.3778    0.0000 C   0  0  0  0  0  0  0  0  0  0  0  0
    1.4018   -2.7903    0.0000 C   0  0  0  0  0  0  0  0  0  0  0  0
  1  2  1  0  0  0  0
  2  3  2  0  0  0  0
  2  4  1  0  0  0  0
  5  1  1  0  0  0  0
  6  5  2  0  0  0  0
  6  7  1  0  0  0  0
  7  8  2  0  0  0  0
  7  9  1  0  0  0  0
 10  6  1  0  0  0  0
 11 10  2  0  0  0  0
 12 11  1  0  0  0  0
  1 12  2  0  0  0  0
M  CHG  4   2   1   4  -1   7   1   9  -1
M  END
> <ChemID>
100351

> <CAS>
99-65-0

> <Original_SMILES>
[O-][N+](=O)c1cc(ccc1)[N+]([O-])=O

> <preferred_name>
1,3-Dinitrobenzene

> <dsstox_substance_id>
DTXSID9024065

> <dsstox_compound_id>
DTXCID204065

> <qc_level>
DSSTox_Low

> <Canonical_QSARr>
[O-][N+](=O)C1C=C(C=CC=1)[N+]([O-])=O

> <InChI_Code_QSARr>
InChI=1S/C6H4N2O4/c9-7(10)5-2-1-3-6(4-5)8(11)12/h1-4H

> <InChI Key_QSARr>
WDCYWAQPCXBPJA-UHFFFAOYSA-N

> <Salt_Solvent>


> <Salt_Solvent_ID>
0

> <MPID>
100360

> <Tr_1_Tst_0>
1

> <Ready_Biodeg>
0.0

$$$$
Row343
  Mrv171c012251911052D          

 10  9  0  0  0  0            999 V2000
    2.0741   -1.6109    0.0000 C   0  0  0  0  0  0  0  0  0  0  0  0
    2.0741   -0.7859    0.0000 C   0  0  0  0  0  0  0  0  0  0  0  0
    1.3596   -0.3734    0.0000 C   0  0  0  0  0  0  0  0  0  0  0  0
    0.6452   -0.7859    0.0000 C   0  0  0  0  0  0  0  0  0  0  0  0
   -0.0693   -0.3734    0.0000 C   0  0  0  0  0  0  0  0  0  0  0  0
    2.7886   -0.3734    0.0000 C   0  0  0  0  0  0  0  0  0  0  0  0
    3.5031   -0.7859    0.0000 C   0  0  0  0  0  0  0  0  0  0  0  0
    4.2175   -0.3734    0.0000 C   0  0  0  0  0  0  0  0  0  0  0  0
    2.7886   -2.0234    0.0000 O   0  0  0  0  0  0  0  0  0  0  0  0
    1.3596   -2.0234    0.0000 O   0  0  0  0  0  0  0  0  0  0  0  0
  1  2  1  0  0  0  0
  2  3  1  0  0  0  0
  3  4  1  0  0  0  0
  4  5  1  0  0  0  0
  2  6  1  0  0  0  0
  6  7  1  0  0  0  0
  7  8  1  0  0  0  0
  1  9  1  0  0  0  0
  1 10  2  0  0  0  0
M  END
> <ChemID>
100352

> <CAS>
99-66-1

> <Original_SMILES>
CCCC(CCC)C(O)=O

> <preferred_name>
Valproic acid

> <dsstox_substance_id>
DTXSID6023733

> <dsstox_compound_id>
DTXCID803733

> <qc_level>
DSSTox_Low

> <Canonical_QSARr>
CCCC(CCC)C(O)=O

> <InChI_Code_QSARr>
InChI=1S/C8H16O2/c1-3-5-7(6-4-2)8(9)10/h7H,3-6H2,1-2H3,(H,9,10)

> <InChI Key_QSARr>
NIJJYAXOARWZEE-UHFFFAOYSA-N

> <Salt_Solvent>


> <Salt_Solvent_ID>
0

> <MPID>
100361

> <Tr_1_Tst_0>
1

> <Ready_Biodeg>
1.0

$$$$
Row344
  Mrv171c012251911052D          

 11 11  0  0  0  0            999 V2000
    1.6875   -1.8697    0.0000 C   0  0  0  0  0  0  0  0  0  0  0  0
    1.6875   -2.6947    0.0000 C   0  0  0  0  0  0  0  0  0  0  0  0
    2.4020   -3.1072    0.0000 C   0  0  0  0  0  0  0  0  0  0  0  0
    0.9730   -3.1072    0.0000 C   0  0  0  0  0  0  0  0  0  0  0  0
    0.9730   -3.9322    0.0000 C   0  0  0  0  0  0  0  0  0  0  0  0
    2.4020   -1.4572    0.0000 C   0  0  0  0  0  0  0  0  0  0  0  0
    2.4020   -0.6322    0.0000 C   0  0  0  0  0  0  0  0  0  0  0  0
    1.6875   -0.2197    0.0000 C   0  0  0  0  0  0  0  0  0  0  0  0
    1.6875    0.6053    0.0000 O   0  0  0  0  0  0  0  0  0  0  0  0
    0.9730   -0.6322    0.0000 C   0  0  0  0  0  0  0  0  0  0  0  0
    0.9730   -1.4572    0.0000 C   0  0  0  0  0  0  0  0  0  0  0  0
  1  2  1  0  0  0  0
  2  3  1  0  0  0  0
  2  4  1  0  0  0  0
  4  5  1  0  0  0  0
  6  1  1  0  0  0  0
  7  6  2  0  0  0  0
  8  7  1  0  0  0  0
  8  9  1  0  0  0  0
 10  8  2  0  0  0  0
 11 10  1  0  0  0  0
  1 11  2  0  0  0  0
M  END
> <ChemID>
100353

> <CAS>
99-71-8

> <Original_SMILES>
CCC(C)c1ccc(O)cc1

> <preferred_name>
4-(Butan-2-yl)phenol

> <dsstox_substance_id>
DTXSID7022332

> <dsstox_compound_id>
DTXCID502332

> <qc_level>
DSSTox_Low

> <Canonical_QSARr>
CC(CC)C1C=CC(O)=CC=1

> <InChI_Code_QSARr>
InChI=1S/C10H14O/c1-3-8(2)9-4-6-10(11)7-5-9/h4-8,11H,3H2,1-2H3

> <InChI Key_QSARr>
ZUTYZAFDFLLILI-UHFFFAOYSA-N

> <Salt_Solvent>


> <Salt_Solvent_ID>
0

> <MPID>
100362

> <Tr_1_Tst_0>
0

> <Ready_Biodeg>
0.0

$$$$
Row345
  Mrv171c012251911052D          

 10 10  0  0  0  0            999 V2000
    1.6491   -2.7776    0.0000 C   0  0  0  0  0  0  0  0  0  0  0  0
    1.6491   -1.9526    0.0000 C   0  0  0  0  0  0  0  0  0  0  0  0
    2.3635   -1.5401    0.0000 C   0  0  0  0  0  0  0  0  0  0  0  0
    2.3635   -0.7151    0.0000 C   0  0  0  0  0  0  0  0  0  0  0  0
    1.6491   -0.3026    0.0000 C   0  0  0  0  0  0  0  0  0  0  0  0
    1.6491    0.5224    0.0000 C   0  0  0  0  0  0  0  0  0  0  0  0
    0.9346    0.9349    0.0000 C   0  0  0  0  0  0  0  0  0  0  0  0
    2.3635    0.9349    0.0000 C   0  0  0  0  0  0  0  0  0  0  0  0
    0.9346   -0.7151    0.0000 C   0  0  0  0  0  0  0  0  0  0  0  0
    0.9346   -1.5401    0.0000 C   0  0  0  0  0  0  0  0  0  0  0  0
  1  2  1  0  0  0  0
  3  2  1  0  0  0  0
  4  3  1  0  0  0  0
  5  4  1  0  0  0  0
  5  6  1  0  0  0  0
  6  7  1  0  0  0  0
  6  8  1  0  0  0  0
  9  5  1  0  0  0  0
 10  9  1  0  0  0  0
  2 10  1  0  0  0  0
M  END
> <ChemID>
100354

> <CAS>
99-82-1

> <Original_SMILES>
CC(C)C1CCC(C)CC1

> <preferred_name>
p-Menthane

> <dsstox_substance_id>
DTXSID9025530

> <dsstox_compound_id>
DTXCID405530

> <qc_level>
DSSTox_Low

> <Canonical_QSARr>
CC(C)C1CCC(C)CC1

> <InChI_Code_QSARr>
InChI=1S/C10H20/c1-8(2)10-6-4-9(3)5-7-10/h8-10H,4-7H2,1-3H3

> <InChI Key_QSARr>
CFJYNSNXFXLKNS-UHFFFAOYSA-N

> <Salt_Solvent>


> <Salt_Solvent_ID>
0

> <MPID>
100363

> <Tr_1_Tst_0>
1

> <Ready_Biodeg>
1.0

$$$$
Row346
  Mrv171c012251911052D          

 10 10  0  0  0  0            999 V2000
    1.6622   -1.1277    0.0000 C   0  0  0  0  0  0  0  0  0  0  0  0
    1.6622   -1.9527    0.0000 C   0  0  0  0  0  0  0  0  0  0  0  0
    0.9477   -2.3652    0.0000 C   0  0  0  0  0  0  0  0  0  0  0  0
    2.3767   -2.3652    0.0000 C   0  0  0  0  0  0  0  0  0  0  0  0
    2.3767   -0.7152    0.0000 C   0  0  0  0  0  0  0  0  0  0  0  0
    2.3767    0.1098    0.0000 C   0  0  0  0  0  0  0  0  0  0  0  0
    1.6622    0.5223    0.0000 C   0  0  0  0  0  0  0  0  0  0  0  0
    1.6622    1.3473    0.0000 C   0  0  0  0  0  0  0  0  0  0  0  0
    0.9477    0.1098    0.0000 C   0  0  0  0  0  0  0  0  0  0  0  0
    0.9477   -0.7152    0.0000 C   0  0  0  0  0  0  0  0  0  0  0  0
  1  2  1  0  0  0  0
  2  3  1  0  0  0  0
  2  4  1  0  0  0  0
  5  1  1  0  0  0  0
  6  5  1  0  0  0  0
  7  6  2  0  0  0  0
  7  8  1  0  0  0  0
  9  7  1  0  0  0  0
 10  9  1  0  0  0  0
  1 10  2  0  0  0  0
M  END
> <ChemID>
100355

> <CAS>
99-85-4

> <Original_SMILES>
CC1CC=C(CC=1)C(C)C

> <preferred_name>
gamma-Terpinene

> <dsstox_substance_id>
DTXSID6041210

> <dsstox_compound_id>
DTXCID4021210

> <qc_level>
DSSTox_Low

> <Canonical_QSARr>
CC1CC=C(CC=1)C(C)C

> <InChI_Code_QSARr>
InChI=1S/C10H16/c1-8(2)10-6-4-9(3)5-7-10/h4,7-8H,5-6H2,1-3H3

> <InChI Key_QSARr>
YKFLAYDHMOASIY-UHFFFAOYSA-N

> <Salt_Solvent>


> <Salt_Solvent_ID>
0

> <MPID>
100364

> <Tr_1_Tst_0>
1

> <Ready_Biodeg>
1.0

$$$$
Row347
  Mrv171c012251911052D          

 10 10  0  0  0  0            999 V2000
    1.6514   -1.9467    0.0000 C   0  0  0  0  0  0  0  0  0  0  0  0
    1.6514   -2.7717    0.0000 C   0  0  0  0  0  0  0  0  0  0  0  0
    2.3659   -1.5342    0.0000 C   0  0  0  0  0  0  0  0  0  0  0  0
    2.3659   -0.7092    0.0000 C   0  0  0  0  0  0  0  0  0  0  0  0
    1.6514   -0.2967    0.0000 C   0  0  0  0  0  0  0  0  0  0  0  0
    1.6514    0.5283    0.0000 C   0  0  0  0  0  0  0  0  0  0  0  0
    0.9369    0.9408    0.0000 C   0  0  0  0  0  0  0  0  0  0  0  0
    2.3659    0.9408    0.0000 C   0  0  0  0  0  0  0  0  0  0  0  0
    0.9369   -0.7092    0.0000 C   0  0  0  0  0  0  0  0  0  0  0  0
    0.9369   -1.5342    0.0000 C   0  0  0  0  0  0  0  0  0  0  0  0
  1  2  1  0  0  0  0
  3  1  1  0  0  0  0
  4  3  2  0  0  0  0
  5  4  1  0  0  0  0
  5  6  1  0  0  0  0
  6  7  1  0  0  0  0
  6  8  1  0  0  0  0
  9  5  2  0  0  0  0
 10  9  1  0  0  0  0
  1 10  2  0  0  0  0
M  END
> <ChemID>
100356

> <CAS>
99-87-6

> <Original_SMILES>
Cc1ccc(cc1)C(C)C

> <preferred_name>
p-Cymene

> <dsstox_substance_id>
DTXSID3026645

> <dsstox_compound_id>
DTXCID006645

> <qc_level>
DSSTox_Low

> <Canonical_QSARr>
CC1C=CC(=CC=1)C(C)C

> <InChI_Code_QSARr>
InChI=1S/C10H14/c1-8(2)10-6-4-9(3)5-7-10/h4-8H,1-3H3

> <InChI Key_QSARr>
HFPZCAJZSCWRBC-UHFFFAOYSA-N

> <Salt_Solvent>


> <Salt_Solvent_ID>
0

> <MPID>
100365

> <Tr_1_Tst_0>
1

> <Ready_Biodeg>
1.0

$$$$
Row348
  Mrv171c012251911052D          

 10 10  0  0  0  0            999 V2000
    1.7918   -1.8614    0.0000 C   0  0  0  0  0  0  0  0  0  0  0  0
    1.7918   -2.6864    0.0000 C   0  0  0  0  0  0  0  0  0  0  0  0
    1.0773   -3.0989    0.0000 O   0  0  0  0  0  0  0  0  0  0  0  0
    2.5063   -3.0989    0.0000 C   0  0  0  0  0  0  0  0  0  0  0  0
    2.5063   -1.4489    0.0000 C   0  0  0  0  0  0  0  0  0  0  0  0
    2.5063   -0.6239    0.0000 C   0  0  0  0  0  0  0  0  0  0  0  0
    1.7918   -0.2114    0.0000 C   0  0  0  0  0  0  0  0  0  0  0  0
    1.7918    0.6136    0.0000 N   0  0  0  0  0  0  0  0  0  0  0  0
    1.0773   -0.6239    0.0000 C   0  0  0  0  0  0  0  0  0  0  0  0
    1.0773   -1.4489    0.0000 C   0  0  0  0  0  0  0  0  0  0  0  0
  1  2  1  0  0  0  0
  2  3  2  0  0  0  0
  2  4  1  0  0  0  0
  5  1  2  0  0  0  0
  6  5  1  0  0  0  0
  7  6  2  0  0  0  0
  7  8  1  0  0  0  0
  9  7  1  0  0  0  0
 10  9  2  0  0  0  0
  1 10  1  0  0  0  0
M  END
> <ChemID>
100357

> <CAS>
99-92-3

> <Original_SMILES>
CC(=O)c1ccc(N)cc1

> <preferred_name>
4-Aminoacetophenone

> <dsstox_substance_id>
DTXSID6052669

> <dsstox_compound_id>
DTXCID7031242

> <qc_level>
DSSTox_Low

> <Canonical_QSARr>
CC(=O)C1C=CC(N)=CC=1

> <InChI_Code_QSARr>
InChI=1S/C8H9NO/c1-6(10)7-2-4-8(9)5-3-7/h2-5H,9H2,1H3

> <InChI Key_QSARr>
GPRYKVSEZCQIHD-UHFFFAOYSA-N

> <Salt_Solvent>


> <Salt_Solvent_ID>
0

> <MPID>
100366

> <Tr_1_Tst_0>
0

> <Ready_Biodeg>
0.0

$$$$
Row349
  Mrv171c012251911052D          

 10 10  0  0  0  0            999 V2000
    1.7888   -2.6850    0.0000 C   0  0  0  0  0  0  0  0  0  0  0  0
    1.7888   -1.8600    0.0000 C   0  0  0  0  0  0  0  0  0  0  0  0
    2.5033   -1.4475    0.0000 C   0  0  0  0  0  0  0  0  0  0  0  0
    2.5033   -0.6225    0.0000 C   0  0  0  0  0  0  0  0  0  0  0  0
    1.7888   -0.2100    0.0000 C   0  0  0  0  0  0  0  0  0  0  0  0
    1.7888    0.6150    0.0000 O   0  0  0  0  0  0  0  0  0  0  0  0
    1.0743   -0.6225    0.0000 C   0  0  0  0  0  0  0  0  0  0  0  0
    1.0743   -1.4475    0.0000 C   0  0  0  0  0  0  0  0  0  0  0  0
    2.5033   -3.0975    0.0000 O   0  0  0  0  0  0  0  0  0  0  0  0
    1.0743   -3.0975    0.0000 C   0  0  0  0  0  0  0  0  0  0  0  0
  1  2  1  0  0  0  0
  3  2  1  0  0  0  0
  4  3  2  0  0  0  0
  5  4  1  0  0  0  0
  5  6  1  0  0  0  0
  7  5  2  0  0  0  0
  8  7  1  0  0  0  0
  2  8  2  0  0  0  0
  1  9  2  0  0  0  0
  1 10  1  0  0  0  0
M  END
> <ChemID>
100358

> <CAS>
99-93-4

> <Original_SMILES>
CC(=O)c1ccc(O)cc1

> <preferred_name>
4-Hydroxyacetophenone

> <dsstox_substance_id>
DTXSID0029133

> <dsstox_compound_id>
DTXCID209133

> <qc_level>
DSSTox_Low

> <Canonical_QSARr>
CC(=O)C1C=CC(O)=CC=1

> <InChI_Code_QSARr>
InChI=1S/C8H8O2/c1-6(9)7-2-4-8(10)5-3-7/h2-5,10H,1H3

> <InChI Key_QSARr>
TXFPEBPIARQUIG-UHFFFAOYSA-N

> <Salt_Solvent>


> <Salt_Solvent_ID>
0

> <MPID>
100367

> <Tr_1_Tst_0>
1

> <Ready_Biodeg>
1.0

$$$$
Row350
  Mrv171c012251911052D          

 10 10  0  0  0  0            999 V2000
    1.6491   -2.7776    0.0000 C   0  0  0  0  0  0  0  0  0  0  0  0
    1.6491   -1.9526    0.0000 C   0  0  0  0  0  0  0  0  0  0  0  0
    2.3635   -1.5401    0.0000 C   0  0  0  0  0  0  0  0  0  0  0  0
    2.3635   -0.7151    0.0000 C   0  0  0  0  0  0  0  0  0  0  0  0
    1.6491   -0.3026    0.0000 C   0  0  0  0  0  0  0  0  0  0  0  0
    1.6491    0.5224    0.0000 C   0  0  0  0  0  0  0  0  0  0  0  0
    0.9346    0.9349    0.0000 O   0  0  0  0  0  0  0  0  0  0  0  0
    2.3635    0.9349    0.0000 O   0  0  0  0  0  0  0  0  0  0  0  0
    0.9346   -0.7151    0.0000 C   0  0  0  0  0  0  0  0  0  0  0  0
    0.9346   -1.5401    0.0000 C   0  0  0  0  0  0  0  0  0  0  0  0
  1  2  1  0  0  0  0
  3  2  1  0  0  0  0
  4  3  2  0  0  0  0
  5  4  1  0  0  0  0
  5  6  1  0  0  0  0
  6  7  2  0  0  0  0
  6  8  1  0  0  0  0
  9  5  2  0  0  0  0
 10  9  1  0  0  0  0
  2 10  2  0  0  0  0
M  END
> <ChemID>
100359

> <CAS>
99-94-5

> <Original_SMILES>
Cc1ccc(cc1)C(O)=O

> <preferred_name>
4-Methylbenzoic acid

> <dsstox_substance_id>
DTXSID6021618

> <dsstox_compound_id>
DTXCID801618

> <qc_level>
DSSTox_Low

> <Canonical_QSARr>
CC1=CC=C(C=C1)C(O)=O

> <InChI_Code_QSARr>
InChI=1S/C8H8O2/c1-6-2-4-7(5-3-6)8(9)10/h2-5H,1H3,(H,9,10)

> <InChI Key_QSARr>
LPNBBFKOUUSUDB-UHFFFAOYSA-N

> <Salt_Solvent>


> <Salt_Solvent_ID>
0

> <MPID>
100368

> <Tr_1_Tst_0>
1

> <Ready_Biodeg>
1.0

$$$$
Row351
  Mrv171c012251911052D          

 10 10  0  0  0  0            999 V2000
    2.0644   -1.9470    0.0000 C   0  0  0  0  0  0  0  0  0  0  0  0
    1.3499   -2.3595    0.0000 O   0  0  0  0  0  0  0  0  0  0  0  0
    2.0644   -1.1220    0.0000 C   0  0  0  0  0  0  0  0  0  0  0  0
    2.7789   -0.7095    0.0000 C   0  0  0  0  0  0  0  0  0  0  0  0
    2.7789    0.1155    0.0000 C   0  0  0  0  0  0  0  0  0  0  0  0
    2.0644    0.5280    0.0000 C   0  0  0  0  0  0  0  0  0  0  0  0
    2.0644    1.3530    0.0000 O   0  0  0  0  0  0  0  0  0  0  0  0
    1.3499    0.1155    0.0000 C   0  0  0  0  0  0  0  0  0  0  0  0
    1.3499   -0.7095    0.0000 C   0  0  0  0  0  0  0  0  0  0  0  0
    2.7789   -2.3595    0.0000 O   0  0  0  0  0  0  0  0  0  0  0  0
  1  2  1  0  0  0  0
  1  3  1  0  0  0  0
  4  3  1  0  0  0  0
  5  4  2  0  0  0  0
  6  5  1  0  0  0  0
  6  7  1  0  0  0  0
  8  6  2  0  0  0  0
  9  8  1  0  0  0  0
  3  9  2  0  0  0  0
  1 10  2  0  0  0  0
M  END
> <ChemID>
100360

> <CAS>
99-96-7

> <Original_SMILES>
Oc1ccc(cc1)C(O)=O

> <preferred_name>
4-Hydroxybenzoic acid

> <dsstox_substance_id>
DTXSID3026647

> <dsstox_compound_id>
DTXCID806647

> <qc_level>
DSSTox_Low

> <Canonical_QSARr>
OC1C=CC(=CC=1)C(O)=O

> <InChI_Code_QSARr>
InChI=1S/C7H6O3/c8-6-3-1-5(2-4-6)7(9)10/h1-4,8H,(H,9,10)

> <InChI Key_QSARr>
FJKROLUGYXJWQN-UHFFFAOYSA-N

> <Salt_Solvent>


> <Salt_Solvent_ID>
0

> <MPID>
100369

> <Tr_1_Tst_0>
1

> <Ready_Biodeg>
1.0

$$$$
Row352
  Mrv171c012251911052D          

 10 10  0  0  0  0            999 V2000
    2.7572   -0.8138    0.0000 C   0  0  0  0  0  0  0  0  0  0  0  0
    2.0427   -0.4013    0.0000 C   0  0  0  0  0  0  0  0  0  0  0  0
    2.0427    0.4237    0.0000 N   0  3  0  0  0  0  0  0  0  0  0  0
    1.3283    0.8362    0.0000 O   0  5  0  0  0  0  0  0  0  0  0  0
    2.7572    0.8362    0.0000 O   0  0  0  0  0  0  0  0  0  0  0  0
    1.3283   -0.8138    0.0000 C   0  0  0  0  0  0  0  0  0  0  0  0
    1.3283   -1.6388    0.0000 C   0  0  0  0  0  0  0  0  0  0  0  0
    2.0427   -2.0513    0.0000 C   0  0  0  0  0  0  0  0  0  0  0  0
    2.0427   -2.8763    0.0000 C   0  0  0  0  0  0  0  0  0  0  0  0
    2.7572   -1.6388    0.0000 C   0  0  0  0  0  0  0  0  0  0  0  0
  2  1  1  0  0  0  0
  2  3  1  0  0  0  0
  3  4  1  0  0  0  0
  3  5  2  0  0  0  0
  6  2  2  0  0  0  0
  7  6  1  0  0  0  0
  8  7  2  0  0  0  0
  8  9  1  0  0  0  0
 10  8  1  0  0  0  0
  1 10  2  0  0  0  0
M  CHG  2   3   1   4  -1
M  END
> <ChemID>
100361

> <CAS>
99-99-0

> <Original_SMILES>
Cc1ccc(cc1)[N+]([O-])=O

> <preferred_name>
4-Nitrotoluene

> <dsstox_substance_id>
DTXSID5023792

> <dsstox_compound_id>
DTXCID203792

> <qc_level>
DSSTox_Low

> <Canonical_QSARr>
CC1=CC=C(C=C1)[N+]([O-])=O

> <InChI_Code_QSARr>
InChI=1S/C7H7NO2/c1-6-2-4-7(5-3-6)8(9)10/h2-5H,1H3

> <InChI Key_QSARr>
ZPTVNYMJQHSSEA-UHFFFAOYSA-N

> <Salt_Solvent>


> <Salt_Solvent_ID>
0

> <MPID>
100370

> <Tr_1_Tst_0>
0

> <Ready_Biodeg>
0.0

$$$$
Row353
  Mrv171c012251911052D          

 10 10  0  0  0  0            999 V2000
    0.9322   -2.3640    0.0000 O   0  0  0  0  0  0  0  0  0  0  0  0
    1.6467   -1.9515    0.0000 N   0  3  0  0  0  0  0  0  0  0  0  0
    2.3611   -2.3640    0.0000 O   0  5  0  0  0  0  0  0  0  0  0  0
    1.6467   -1.1265    0.0000 C   0  0  0  0  0  0  0  0  0  0  0  0
    2.3611   -0.7140    0.0000 C   0  0  0  0  0  0  0  0  0  0  0  0
    2.3611    0.1110    0.0000 C   0  0  0  0  0  0  0  0  0  0  0  0
    1.6467    0.5235    0.0000 C   0  0  0  0  0  0  0  0  0  0  0  0
    1.6467    1.3485    0.0000 Cl  0  0  0  0  0  0  0  0  0  0  0  0
    0.9322    0.1110    0.0000 C   0  0  0  0  0  0  0  0  0  0  0  0
    0.9322   -0.7140    0.0000 C   0  0  0  0  0  0  0  0  0  0  0  0
  1  2  2  0  0  0  0
  2  3  1  0  0  0  0
  2  4  1  0  0  0  0
  5  4  1  0  0  0  0
  6  5  2  0  0  0  0
  7  6  1  0  0  0  0
  7  8  1  0  0  0  0
  9  7  2  0  0  0  0
 10  9  1  0  0  0  0
  4 10  2  0  0  0  0
M  CHG  2   2   1   3  -1
M  END
> <ChemID>
100362

> <CAS>
100-00-5

> <Original_SMILES>
[O-][N+](=O)c1ccc(Cl)cc1

> <preferred_name>
1-Chloro-4-nitrobenzene

> <dsstox_substance_id>
DTXSID5020281

> <dsstox_compound_id>
DTXCID10281

> <qc_level>
DSSTox_Low

> <Canonical_QSARr>
[O-][N+](=O)C1C=CC(Cl)=CC=1

> <InChI_Code_QSARr>
InChI=1S/C6H4ClNO2/c7-5-1-3-6(4-2-5)8(9)10/h1-4H

> <InChI Key_QSARr>
CZGCEKJOLUNIFY-UHFFFAOYSA-N

> <Salt_Solvent>


> <Salt_Solvent_ID>
0

> <MPID>
100371

> <Tr_1_Tst_0>
1

> <Ready_Biodeg>
0.0

$$$$
Row354
  Mrv171c012251911052D          

 10 10  0  0  0  0            999 V2000
    0.9322   -2.3640    0.0000 O   0  0  0  0  0  0  0  0  0  0  0  0
    1.6467   -1.9515    0.0000 N   0  3  0  0  0  0  0  0  0  0  0  0
    2.3611   -2.3640    0.0000 O   0  5  0  0  0  0  0  0  0  0  0  0
    1.6467   -1.1265    0.0000 C   0  0  0  0  0  0  0  0  0  0  0  0
    2.3611   -0.7140    0.0000 C   0  0  0  0  0  0  0  0  0  0  0  0
    2.3611    0.1110    0.0000 C   0  0  0  0  0  0  0  0  0  0  0  0
    1.6467    0.5235    0.0000 C   0  0  0  0  0  0  0  0  0  0  0  0
    1.6467    1.3485    0.0000 N   0  0  0  0  0  0  0  0  0  0  0  0
    0.9322    0.1110    0.0000 C   0  0  0  0  0  0  0  0  0  0  0  0
    0.9322   -0.7140    0.0000 C   0  0  0  0  0  0  0  0  0  0  0  0
  1  2  2  0  0  0  0
  2  3  1  0  0  0  0
  2  4  1  0  0  0  0
  5  4  1  0  0  0  0
  6  5  2  0  0  0  0
  7  6  1  0  0  0  0
  7  8  1  0  0  0  0
  9  7  2  0  0  0  0
 10  9  1  0  0  0  0
  4 10  2  0  0  0  0
M  CHG  2   2   1   3  -1
M  END
> <ChemID>
100363

> <CAS>
100-01-6

> <Original_SMILES>
Nc1ccc(cc1)[N+]([O-])=O

> <preferred_name>
4-Nitroaniline

> <dsstox_substance_id>
DTXSID8020961

> <dsstox_compound_id>
DTXCID40961

> <qc_level>
DSSTox_Low

> <Canonical_QSARr>
NC1=CC=C(C=C1)[N+]([O-])=O

> <InChI_Code_QSARr>
InChI=1S/C6H6N2O2/c7-5-1-3-6(4-2-5)8(9)10/h1-4H,7H2

> <InChI Key_QSARr>
TYMLOMAKGOJONV-UHFFFAOYSA-N

> <Salt_Solvent>


> <Salt_Solvent_ID>
0

> <MPID>
100372

> <Tr_1_Tst_0>
1

> <Ready_Biodeg>
0.0

$$$$
Row355
  Mrv171c012251911052D          

 10 10  0  0  0  0            999 V2000
    1.6467   -2.7765    0.0000 O   0  0  0  0  0  0  0  0  0  0  0  0
    1.6467   -1.9515    0.0000 C   0  0  0  0  0  0  0  0  0  0  0  0
    2.3611   -1.5390    0.0000 C   0  0  0  0  0  0  0  0  0  0  0  0
    2.3611   -0.7140    0.0000 C   0  0  0  0  0  0  0  0  0  0  0  0
    1.6467   -0.3015    0.0000 C   0  0  0  0  0  0  0  0  0  0  0  0
    1.6467    0.5235    0.0000 N   0  3  0  0  0  0  0  0  0  0  0  0
    0.9322    0.9360    0.0000 O   0  5  0  0  0  0  0  0  0  0  0  0
    2.3611    0.9360    0.0000 O   0  0  0  0  0  0  0  0  0  0  0  0
    0.9322   -0.7140    0.0000 C   0  0  0  0  0  0  0  0  0  0  0  0
    0.9322   -1.5390    0.0000 C   0  0  0  0  0  0  0  0  0  0  0  0
  1  2  1  0  0  0  0
  3  2  1  0  0  0  0
  4  3  2  0  0  0  0
  5  4  1  0  0  0  0
  5  6  1  0  0  0  0
  6  7  1  0  0  0  0
  6  8  2  0  0  0  0
  9  5  2  0  0  0  0
 10  9  1  0  0  0  0
  2 10  2  0  0  0  0
M  CHG  2   6   1   7  -1
M  END
> <ChemID>
100364

> <CAS>
100-02-7

> <Original_SMILES>
[O-][N+](=O)c1ccc(O)cc1

> <preferred_name>
4-Nitrophenol

> <dsstox_substance_id>
DTXSID0021834

> <dsstox_compound_id>
DTXCID201834

> <qc_level>
DSSTox_Low

> <Canonical_QSARr>
[O-][N+](=O)C1C=CC(O)=CC=1

> <InChI_Code_QSARr>
InChI=1S/C6H5NO3/c8-6-3-1-5(2-4-6)7(9)10/h1-4,8H

> <InChI Key_QSARr>
BTJIUGUIPKRLHP-UHFFFAOYSA-N

> <Salt_Solvent>


> <Salt_Solvent_ID>
0

> <MPID>
100373

> <Tr_1_Tst_0>
1

> <Ready_Biodeg>
0.0

$$$$
Row356
  Mrv171c012251911052D          

 11 11  0  0  0  0            999 V2000
   -0.0000   -2.0250    0.0000 C   0  0  0  0  0  0  0  0  0  0  0  0
    0.7145   -1.6125    0.0000 O   0  0  0  0  0  0  0  0  0  0  0  0
    0.7145   -0.7875    0.0000 C   0  0  0  0  0  0  0  0  0  0  0  0
    1.4289   -0.3750    0.0000 C   0  0  0  0  0  0  0  0  0  0  0  0
    1.4289    0.4500    0.0000 C   0  0  0  0  0  0  0  0  0  0  0  0
    0.7145    0.8625    0.0000 C   0  0  0  0  0  0  0  0  0  0  0  0
    0.7145    1.6875    0.0000 C   0  0  0  0  0  0  0  0  0  0  0  0
   -0.0000    2.1000    0.0000 O   0  0  0  0  0  0  0  0  0  0  0  0
    1.4289    2.1000    0.0000 O   0  0  0  0  0  0  0  0  0  0  0  0
   -0.0000    0.4500    0.0000 C   0  0  0  0  0  0  0  0  0  0  0  0
   -0.0000   -0.3750    0.0000 C   0  0  0  0  0  0  0  0  0  0  0  0
  1  2  1  0  0  0  0
  2  3  1  0  0  0  0
  4  3  1  0  0  0  0
  5  4  2  0  0  0  0
  6  5  1  0  0  0  0
  6  7  1  0  0  0  0
  7  8  1  0  0  0  0
  7  9  2  0  0  0  0
 10  6  2  0  0  0  0
 11 10  1  0  0  0  0
  3 11  2  0  0  0  0
M  END
> <ChemID>
100365

> <CAS>
100-09-4

> <Original_SMILES>
COc1ccc(cc1)C(O)=O

> <preferred_name>
Benzoic acid, 4-methoxy-

> <dsstox_substance_id>
DTXSID4059205

> <dsstox_compound_id>
DTXCID0032445

> <qc_level>
Public_High

> <Canonical_QSARr>
COC1C=CC(=CC=1)C(O)=O

> <InChI_Code_QSARr>
InChI=1S/C8H8O3/c1-11-7-4-2-6(3-5-7)8(9)10/h2-5H,1H3,(H,9,10)

> <InChI Key_QSARr>
ZEYHEAKUIGZSGI-UHFFFAOYSA-N

> <Salt_Solvent>


> <Salt_Solvent_ID>
0

> <MPID>
100374

> <Tr_1_Tst_0>
0

> <Ready_Biodeg>
1.0

$$$$
Row357
  Mrv171c012251911052D          

 11 11  0  0  0  0            999 V2000
    0.7145   -0.0375    0.0000 C   0  0  0  0  0  0  0  0  0  0  0  0
    0.7145   -0.8625    0.0000 N   0  3  0  0  0  0  0  0  0  0  0  0
   -0.0000   -1.2750    0.0000 O   0  5  0  0  0  0  0  0  0  0  0  0
    1.4289   -1.2750    0.0000 O   0  0  0  0  0  0  0  0  0  0  0  0
    1.4289    0.3750    0.0000 C   0  0  0  0  0  0  0  0  0  0  0  0
    1.4289    1.2000    0.0000 C   0  0  0  0  0  0  0  0  0  0  0  0
    0.7145    1.6125    0.0000 C   0  0  0  0  0  0  0  0  0  0  0  0
    0.7145    2.4375    0.0000 O   0  0  0  0  0  0  0  0  0  0  0  0
   -0.0000    2.8500    0.0000 C   0  0  0  0  0  0  0  0  0  0  0  0
   -0.0000    1.2000    0.0000 C   0  0  0  0  0  0  0  0  0  0  0  0
   -0.0000    0.3750    0.0000 C   0  0  0  0  0  0  0  0  0  0  0  0
  1  2  1  0  0  0  0
  2  3  1  0  0  0  0
  2  4  2  0  0  0  0
  5  1  1  0  0  0  0
  6  5  2  0  0  0  0
  7  6  1  0  0  0  0
  7  8  1  0  0  0  0
  8  9  1  0  0  0  0
 10  7  2  0  0  0  0
 11 10  1  0  0  0  0
  1 11  2  0  0  0  0
M  CHG  2   2   1   3  -1
M  END
> <ChemID>
100366

> <CAS>
100-17-4

> <Original_SMILES>
COc1ccc(cc1)[N+]([O-])=O

> <preferred_name>
p-Nitroanisole

> <dsstox_substance_id>
DTXSID9059208

> <dsstox_compound_id>
DTXCID5032448

> <qc_level>
Public_High

> <Canonical_QSARr>
COC1C=CC(=CC=1)[N+]([O-])=O

> <InChI_Code_QSARr>
InChI=1S/C7H7NO3/c1-11-7-4-2-6(3-5-7)8(9)10/h2-5H,1H3

> <InChI Key_QSARr>
BNUHAJGCKIQFGE-UHFFFAOYSA-N

> <Salt_Solvent>


> <Salt_Solvent_ID>
0

> <MPID>
100375

> <Tr_1_Tst_0>
1

> <Ready_Biodeg>
0.0

$$$$
Row358
  Mrv171c012251911052D          

 12 12  0  0  0  0            999 V2000
    2.0640   -1.5369    0.0000 C   0  0  0  0  0  0  0  0  0  0  0  0
    2.0640   -2.3619    0.0000 C   0  0  0  0  0  0  0  0  0  0  0  0
    1.3496   -2.7744    0.0000 C   0  0  0  0  0  0  0  0  0  0  0  0
    2.7785   -2.7744    0.0000 C   0  0  0  0  0  0  0  0  0  0  0  0
    2.7785   -1.1244    0.0000 C   0  0  0  0  0  0  0  0  0  0  0  0
    2.7785   -0.2994    0.0000 C   0  0  0  0  0  0  0  0  0  0  0  0
    2.0640    0.1131    0.0000 C   0  0  0  0  0  0  0  0  0  0  0  0
    2.0640    0.9381    0.0000 C   0  0  0  0  0  0  0  0  0  0  0  0
    1.3496    1.3506    0.0000 C   0  0  0  0  0  0  0  0  0  0  0  0
    2.7785    1.3506    0.0000 C   0  0  0  0  0  0  0  0  0  0  0  0
    1.3496   -0.2994    0.0000 C   0  0  0  0  0  0  0  0  0  0  0  0
    1.3496   -1.1244    0.0000 C   0  0  0  0  0  0  0  0  0  0  0  0
  1  2  1  0  0  0  0
  2  3  1  0  0  0  0
  2  4  1  0  0  0  0
  5  1  1  0  0  0  0
  6  5  2  0  0  0  0
  7  6  1  0  0  0  0
  7  8  1  0  0  0  0
  8  9  1  0  0  0  0
  8 10  1  0  0  0  0
 11  7  2  0  0  0  0
 12 11  1  0  0  0  0
  1 12  2  0  0  0  0
M  END
> <ChemID>
100367

> <CAS>
100-18-5

> <Original_SMILES>
CC(C)c1ccc(cc1)C(C)C

> <preferred_name>
1,4-Diisopropylbenzene

> <dsstox_substance_id>
DTXSID2026652

> <dsstox_compound_id>
DTXCID106652

> <qc_level>
DSSTox_Low

> <Canonical_QSARr>
CC(C)C1C=CC(=CC=1)C(C)C

> <InChI_Code_QSARr>
InChI=1S/C12H18/c1-9(2)11-5-7-12(8-6-11)10(3)4/h5-10H,1-4H3

> <InChI Key_QSARr>
SPPWGCYEYAMHDT-UHFFFAOYSA-N

> <Salt_Solvent>


> <Salt_Solvent_ID>
0

> <MPID>
100376

> <Tr_1_Tst_0>
1

> <Ready_Biodeg>
0.0

$$$$
Row359
  Mrv171c012251911052D          

 12 12  0  0  0  0            999 V2000
    2.0638   -2.3664    0.0000 C   0  0  0  0  0  0  0  0  0  0  0  0
    2.0638   -1.5414    0.0000 C   0  0  0  0  0  0  0  0  0  0  0  0
    2.7783   -1.1289    0.0000 C   0  0  0  0  0  0  0  0  0  0  0  0
    2.7783   -0.3039    0.0000 C   0  0  0  0  0  0  0  0  0  0  0  0
    2.0638    0.1086    0.0000 C   0  0  0  0  0  0  0  0  0  0  0  0
    2.0638    0.9336    0.0000 C   0  0  0  0  0  0  0  0  0  0  0  0
    1.3494    1.3461    0.0000 O   0  0  0  0  0  0  0  0  0  0  0  0
    2.7783    1.3461    0.0000 O   0  0  0  0  0  0  0  0  0  0  0  0
    1.3494   -0.3039    0.0000 C   0  0  0  0  0  0  0  0  0  0  0  0
    1.3494   -1.1289    0.0000 C   0  0  0  0  0  0  0  0  0  0  0  0
    2.7783   -2.7789    0.0000 O   0  0  0  0  0  0  0  0  0  0  0  0
    1.3494   -2.7789    0.0000 O   0  0  0  0  0  0  0  0  0  0  0  0
  1  2  1  0  0  0  0
  3  2  1  0  0  0  0
  4  3  2  0  0  0  0
  5  4  1  0  0  0  0
  5  6  1  0  0  0  0
  6  7  2  0  0  0  0
  6  8  1  0  0  0  0
  9  5  2  0  0  0  0
 10  9  1  0  0  0  0
  2 10  2  0  0  0  0
  1 11  1  0  0  0  0
  1 12  2  0  0  0  0
M  END
> <ChemID>
100368

> <CAS>
100-21-0

> <Original_SMILES>
OC(=O)c1ccc(cc1)C(O)=O

> <preferred_name>
Terephthalic acid

> <dsstox_substance_id>
DTXSID6026080

> <dsstox_compound_id>
DTXCID006080

> <qc_level>
DSSTox_Low

> <Canonical_QSARr>
OC(=O)C1C=CC(=CC=1)C(O)=O

> <InChI_Code_QSARr>
InChI=1S/C8H6O4/c9-7(10)5-1-2-6(4-3-5)8(11)12/h1-4H,(H,9,10)(H,11,12)

> <InChI Key_QSARr>
KKEYFWRCBNTPAC-UHFFFAOYSA-N

> <Salt_Solvent>


> <Salt_Solvent_ID>
0

> <MPID>
100377

> <Tr_1_Tst_0>
1

> <Ready_Biodeg>
1.0

$$$$
Row360
  Mrv171c012251911052D          

 12 12  0  0  0  0            999 V2000
    1.3498   -2.7767    0.0000 O   0  5  0  0  0  0  0  0  0  0  0  0
    2.0643   -2.3642    0.0000 N   0  3  0  0  0  0  0  0  0  0  0  0
    2.0643   -1.5392    0.0000 C   0  0  0  0  0  0  0  0  0  0  0  0
    2.7787   -1.1267    0.0000 C   0  0  0  0  0  0  0  0  0  0  0  0
    2.7787   -0.3017    0.0000 C   0  0  0  0  0  0  0  0  0  0  0  0
    2.0643    0.1108    0.0000 C   0  0  0  0  0  0  0  0  0  0  0  0
    2.0643    0.9358    0.0000 N   0  3  0  0  0  0  0  0  0  0  0  0
    1.3498    1.3483    0.0000 O   0  0  0  0  0  0  0  0  0  0  0  0
    2.7787    1.3483    0.0000 O   0  5  0  0  0  0  0  0  0  0  0  0
    1.3498   -0.3017    0.0000 C   0  0  0  0  0  0  0  0  0  0  0  0
    1.3498   -1.1267    0.0000 C   0  0  0  0  0  0  0  0  0  0  0  0
    2.7787   -2.7767    0.0000 O   0  0  0  0  0  0  0  0  0  0  0  0
  1  2  1  0  0  0  0
  2  3  1  0  0  0  0
  4  3  1  0  0  0  0
  5  4  2  0  0  0  0
  6  5  1  0  0  0  0
  6  7  1  0  0  0  0
  7  8  2  0  0  0  0
  7  9  1  0  0  0  0
 10  6  2  0  0  0  0
 11 10  1  0  0  0  0
  3 11  2  0  0  0  0
  2 12  2  0  0  0  0
M  CHG  4   1  -1   2   1   7   1   9  -1
M  END
> <ChemID>
100369

> <CAS>
100-25-4

> <Original_SMILES>
[O-][N+](=O)c1ccc(cc1)[N+]([O-])=O

> <preferred_name>
1,4-Dinitrobenzene

> <dsstox_substance_id>
DTXSID0021836

> <dsstox_compound_id>
DTXCID001836

> <qc_level>
DSSTox_Low

> <Canonical_QSARr>
[O-][N+](=O)C1C=CC(=CC=1)[N+]([O-])=O

> <InChI_Code_QSARr>
InChI=1S/C6H4N2O4/c9-7(10)5-1-2-6(4-3-5)8(11)12/h1-4H

> <InChI Key_QSARr>
FYFDQJRXFWGIBS-UHFFFAOYSA-N

> <Salt_Solvent>


> <Salt_Solvent_ID>
0

> <MPID>
100378

> <Tr_1_Tst_0>
0

> <Ready_Biodeg>
0.0

$$$$
Row361
  Mrv171c012251911052D          

  8  8  0  0  0  0            999 V2000
    2.2218    0.9732    0.0000 C   0  0  0  0  0  0  0  0  0  0  0  0
    1.5073    0.5607    0.0000 C   0  0  0  0  0  0  0  0  0  0  0  0
    1.5073   -0.2643    0.0000 C   0  0  0  0  0  0  0  0  0  0  0  0
    0.7928   -0.6768    0.0000 C   0  0  0  0  0  0  0  0  0  0  0  0
    0.7928   -1.5018    0.0000 C   0  0  0  0  0  0  0  0  0  0  0  0
    1.5073   -1.9143    0.0000 C   0  0  0  0  0  0  0  0  0  0  0  0
    2.2218   -1.5018    0.0000 C   0  0  0  0  0  0  0  0  0  0  0  0
    2.2218   -0.6768    0.0000 C   0  0  0  0  0  0  0  0  0  0  0  0
  1  2  2  0  0  0  0
  2  3  1  0  0  0  0
  4  3  1  0  0  0  0
  5  4  1  0  0  0  0
  6  5  2  0  0  0  0
  7  6  1  0  0  0  0
  8  7  1  0  0  0  0
  3  8  1  0  0  0  0
M  END
> <ChemID>
100370

> <CAS>
100-40-3

> <Original_SMILES>
C=CC1CC=CCC1

> <preferred_name>
4-Vinylcyclohexene

> <dsstox_substance_id>
DTXSID3021437

> <dsstox_compound_id>
DTXCID601437

> <qc_level>
DSSTox_Low

> <Canonical_QSARr>
C=CC1CC=CCC1

> <InChI_Code_QSARr>
InChI=1S/C8H12/c1-2-8-6-4-3-5-7-8/h2-4,8H,1,5-7H2

> <InChI Key_QSARr>
BBDKZWKEPDTENS-UHFFFAOYSA-N

> <Salt_Solvent>


> <Salt_Solvent_ID>
0

> <MPID>
100379

> <Tr_1_Tst_0>
1

> <Ready_Biodeg>
0.0

$$$$
Row362
  Mrv171c012251911052D          

  8  8  0  0  0  0            999 V2000
    3.1082    0.5344    0.0000 C   0  0  0  0  0  0  0  0  0  0  0  0
    2.3938    0.1219    0.0000 C   0  0  0  0  0  0  0  0  0  0  0  0
    2.3938   -0.7031    0.0000 C   0  0  0  0  0  0  0  0  0  0  0  0
    1.6793   -1.1156    0.0000 C   0  0  0  0  0  0  0  0  0  0  0  0
    1.6793   -1.9406    0.0000 C   0  0  0  0  0  0  0  0  0  0  0  0
    2.3938   -2.3531    0.0000 C   0  0  0  0  0  0  0  0  0  0  0  0
    3.1082   -1.9406    0.0000 C   0  0  0  0  0  0  0  0  0  0  0  0
    3.1082   -1.1156    0.0000 C   0  0  0  0  0  0  0  0  0  0  0  0
  1  2  2  0  0  0  0
  2  3  1  0  0  0  0
  4  3  1  0  0  0  0
  5  4  2  0  0  0  0
  6  5  1  0  0  0  0
  7  6  2  0  0  0  0
  8  7  1  0  0  0  0
  3  8  2  0  0  0  0
M  END
> <ChemID>
100371

> <CAS>
100-42-5

> <Original_SMILES>
C=Cc1ccccc1

> <preferred_name>
Styrene

> <dsstox_substance_id>
DTXSID2021284

> <dsstox_compound_id>
DTXCID501284

> <qc_level>
DSSTox_High

> <Canonical_QSARr>
C=CC1C=CC=CC=1

> <InChI_Code_QSARr>
InChI=1S/C8H8/c1-2-8-6-4-3-5-7-8/h2-7H,1H2

> <InChI Key_QSARr>
PPBRXRYQALVLMV-UHFFFAOYSA-N

> <Salt_Solvent>


> <Salt_Solvent_ID>
0

> <MPID>
100380

> <Tr_1_Tst_0>
1

> <Ready_Biodeg>
1.0

$$$$
Row363
  Mrv171c012251911052D          

  8  8  0  0  0  0            999 V2000
    0.7136   -2.8852    0.0000 N   0  0  0  0  0  0  0  0  0  0  0  0
    1.4280   -2.4727    0.0000 C   0  0  0  0  0  0  0  0  0  0  0  0
    1.4280   -1.6477    0.0000 C   0  0  0  0  0  0  0  0  0  0  0  0
    0.7136   -1.2352    0.0000 C   0  0  0  0  0  0  0  0  0  0  0  0
    0.7136   -0.4102    0.0000 C   0  0  0  0  0  0  0  0  0  0  0  0
   -0.0009    0.0023    0.0000 C   0  0  0  0  0  0  0  0  0  0  0  0
   -0.0009   -1.6477    0.0000 C   0  0  0  0  0  0  0  0  0  0  0  0
   -0.0009   -2.4727    0.0000 C   0  0  0  0  0  0  0  0  0  0  0  0
  2  1  1  0  0  0  0
  3  2  2  0  0  0  0
  4  3  1  0  0  0  0
  4  5  1  0  0  0  0
  5  6  2  0  0  0  0
  7  4  2  0  0  0  0
  8  7  1  0  0  0  0
  1  8  2  0  0  0  0
M  END
> <ChemID>
100372

> <CAS>
100-43-6

> <Original_SMILES>
C=Cc1cc[n]cc1

> <preferred_name>
4-Vinylpyridine

> <dsstox_substance_id>
DTXSID0051499

> <dsstox_compound_id>
DTXCID4030047

> <qc_level>
DSSTox_High

> <Canonical_QSARr>
C=CC1C=CN=CC=1

> <InChI_Code_QSARr>
InChI=1S/C7H7N/c1-2-7-3-5-8-6-4-7/h2-6H,1H2

> <InChI Key_QSARr>
KFDVPJUYSDEJTH-UHFFFAOYSA-N

> <Salt_Solvent>


> <Salt_Solvent_ID>
0

> <MPID>
100381

> <Tr_1_Tst_0>
1

> <Ready_Biodeg>
0.0

$$$$
Row364
  Mrv171c012251911052D          

  8  8  0  0  0  0            999 V2000
    2.2218    0.9732    0.0000 Cl  0  0  0  0  0  0  0  0  0  0  0  0
    1.5073    0.5607    0.0000 C   0  0  0  0  0  0  0  0  0  0  0  0
    1.5073   -0.2643    0.0000 C   0  0  0  0  0  0  0  0  0  0  0  0
    0.7928   -0.6768    0.0000 C   0  0  0  0  0  0  0  0  0  0  0  0
    0.7928   -1.5018    0.0000 C   0  0  0  0  0  0  0  0  0  0  0  0
    1.5073   -1.9143    0.0000 C   0  0  0  0  0  0  0  0  0  0  0  0
    2.2218   -1.5018    0.0000 C   0  0  0  0  0  0  0  0  0  0  0  0
    2.2218   -0.6768    0.0000 C   0  0  0  0  0  0  0  0  0  0  0  0
  1  2  1  0  0  0  0
  2  3  1  0  0  0  0
  4  3  1  0  0  0  0
  5  4  2  0  0  0  0
  6  5  1  0  0  0  0
  7  6  2  0  0  0  0
  8  7  1  0  0  0  0
  3  8  2  0  0  0  0
M  END
> <ChemID>
100373

> <CAS>
100-44-7

> <Original_SMILES>
ClCc1ccccc1

> <preferred_name>
Benzyl chloride

> <dsstox_substance_id>
DTXSID0020153

> <dsstox_compound_id>
DTXCID00153

> <qc_level>
DSSTox_Low

> <Canonical_QSARr>
ClCC1C=CC=CC=1

> <InChI_Code_QSARr>
InChI=1S/C7H7Cl/c8-6-7-4-2-1-3-5-7/h1-5H,6H2

> <InChI Key_QSARr>
KCXMKQUNVWSEMD-UHFFFAOYSA-N

> <Salt_Solvent>


> <Salt_Solvent_ID>
0

> <MPID>
100382

> <Tr_1_Tst_0>
0

> <Ready_Biodeg>
1.0

$$$$
Row365
  Mrv171c012251911052D          

  8  8  0  0  0  0            999 V2000
    2.2218    0.9732    0.0000 N   0  0  0  0  0  0  0  0  0  0  0  0
    1.5073    0.5607    0.0000 C   0  0  0  0  0  0  0  0  0  0  0  0
    1.5073   -0.2643    0.0000 C   0  0  0  0  0  0  0  0  0  0  0  0
    0.7928   -0.6768    0.0000 C   0  0  0  0  0  0  0  0  0  0  0  0
    0.7928   -1.5018    0.0000 C   0  0  0  0  0  0  0  0  0  0  0  0
    1.5073   -1.9143    0.0000 C   0  0  0  0  0  0  0  0  0  0  0  0
    2.2218   -1.5018    0.0000 C   0  0  0  0  0  0  0  0  0  0  0  0
    2.2218   -0.6768    0.0000 C   0  0  0  0  0  0  0  0  0  0  0  0
  1  2  1  0  0  0  0
  2  3  1  0  0  0  0
  4  3  1  0  0  0  0
  5  4  2  0  0  0  0
  6  5  1  0  0  0  0
  7  6  2  0  0  0  0
  8  7  1  0  0  0  0
  3  8  2  0  0  0  0
M  END
> <ChemID>
100374

> <CAS>
100-46-9

> <Original_SMILES>
NCc1ccccc1

> <preferred_name>
Benzylamine

> <dsstox_substance_id>
DTXSID5021839

> <dsstox_compound_id>
DTXCID201839

> <qc_level>
DSSTox_Low

> <Canonical_QSARr>
NCC1C=CC=CC=1

> <InChI_Code_QSARr>
InChI=1S/C7H9N/c8-6-7-4-2-1-3-5-7/h1-5H,6,8H2

> <InChI Key_QSARr>
WGQKYBSKWIADBV-UHFFFAOYSA-N

> <Salt_Solvent>


> <Salt_Solvent_ID>
0

> <MPID>
100383

> <Tr_1_Tst_0>
1

> <Ready_Biodeg>
1.0

$$$$
Row366
  Mrv171c012251911052D          

  8  8  0  0  0  0            999 V2000
    1.9593    1.2441    0.0000 N   0  0  0  0  0  0  0  0  0  0  0  0
    1.9593    0.4191    0.0000 C   0  0  0  0  0  0  0  0  0  0  0  0
    1.9593   -0.4059    0.0000 C   0  0  0  0  0  0  0  0  0  0  0  0
    1.2448   -0.8184    0.0000 C   0  0  0  0  0  0  0  0  0  0  0  0
    1.2448   -1.6434    0.0000 C   0  0  0  0  0  0  0  0  0  0  0  0
    1.9593   -2.0559    0.0000 C   0  0  0  0  0  0  0  0  0  0  0  0
    2.6737   -1.6434    0.0000 C   0  0  0  0  0  0  0  0  0  0  0  0
    2.6737   -0.8184    0.0000 C   0  0  0  0  0  0  0  0  0  0  0  0
  1  2  3  0  0  0  0
  2  3  1  0  0  0  0
  4  3  1  0  0  0  0
  5  4  2  0  0  0  0
  6  5  1  0  0  0  0
  7  6  2  0  0  0  0
  8  7  1  0  0  0  0
  3  8  2  0  0  0  0
M  END
> <ChemID>
100375

> <CAS>
100-47-0

> <Original_SMILES>
N#Cc1ccccc1

> <preferred_name>
Benzonitrile

> <dsstox_substance_id>
DTXSID7021491

> <dsstox_compound_id>
DTXCID001491

> <qc_level>
DSSTox_Low

> <Canonical_QSARr>
N#CC1C=CC=CC=1

> <InChI_Code_QSARr>
InChI=1S/C7H5N/c8-6-7-4-2-1-3-5-7/h1-5H

> <InChI Key_QSARr>
JFDZBHWFFUWGJE-UHFFFAOYSA-N

> <Salt_Solvent>


> <Salt_Solvent_ID>
0

> <MPID>
100384

> <Tr_1_Tst_0>
1

> <Ready_Biodeg>
1.0

$$$$
Row367
  Mrv171c012251911052D          

  8  8  0  0  0  0            999 V2000
    2.2218    0.9732    0.0000 O   0  0  0  0  0  0  0  0  0  0  0  0
    1.5073    0.5607    0.0000 C   0  0  0  0  0  0  0  0  0  0  0  0
    1.5073   -0.2643    0.0000 C   0  0  0  0  0  0  0  0  0  0  0  0
    0.7928   -0.6768    0.0000 C   0  0  0  0  0  0  0  0  0  0  0  0
    0.7928   -1.5018    0.0000 C   0  0  0  0  0  0  0  0  0  0  0  0
    1.5073   -1.9143    0.0000 C   0  0  0  0  0  0  0  0  0  0  0  0
    2.2218   -1.5018    0.0000 C   0  0  0  0  0  0  0  0  0  0  0  0
    2.2218   -0.6768    0.0000 C   0  0  0  0  0  0  0  0  0  0  0  0
  1  2  1  0  0  0  0
  2  3  1  0  0  0  0
  4  3  1  0  0  0  0
  5  4  2  0  0  0  0
  6  5  1  0  0  0  0
  7  6  2  0  0  0  0
  8  7  1  0  0  0  0
  3  8  2  0  0  0  0
M  END
> <ChemID>
100376

> <CAS>
100-51-6

> <Original_SMILES>
OCc1ccccc1

> <preferred_name>
Benzyl alcohol

> <dsstox_substance_id>
DTXSID5020152

> <dsstox_compound_id>
DTXCID70152

> <qc_level>
DSSTox_Low

> <Canonical_QSARr>
OCC1C=CC=CC=1

> <InChI_Code_QSARr>
InChI=1S/C7H8O/c8-6-7-4-2-1-3-5-7/h1-5,8H,6H2

> <InChI Key_QSARr>
WVDDGKGOMKODPV-UHFFFAOYSA-N

> <Salt_Solvent>


> <Salt_Solvent_ID>
0

> <MPID>
100385

> <Tr_1_Tst_0>
1

> <Ready_Biodeg>
1.0

$$$$
Row368
  Mrv171c012251911052D          

  8  8  0  0  0  0            999 V2000
    2.2218    0.9732    0.0000 O   0  0  0  0  0  0  0  0  0  0  0  0
    1.5073    0.5607    0.0000 C   0  0  0  0  0  0  0  0  0  0  0  0
    1.5073   -0.2643    0.0000 C   0  0  0  0  0  0  0  0  0  0  0  0
    0.7928   -0.6768    0.0000 C   0  0  0  0  0  0  0  0  0  0  0  0
    0.7928   -1.5018    0.0000 C   0  0  0  0  0  0  0  0  0  0  0  0
    1.5073   -1.9143    0.0000 C   0  0  0  0  0  0  0  0  0  0  0  0
    2.2218   -1.5018    0.0000 C   0  0  0  0  0  0  0  0  0  0  0  0
    2.2218   -0.6768    0.0000 C   0  0  0  0  0  0  0  0  0  0  0  0
  1  2  2  0  0  0  0
  2  3  1  0  0  0  0
  4  3  1  0  0  0  0
  5  4  2  0  0  0  0
  6  5  1  0  0  0  0
  7  6  2  0  0  0  0
  8  7  1  0  0  0  0
  3  8  2  0  0  0  0
M  END
> <ChemID>
100377

> <CAS>
100-52-7

> <Original_SMILES>
O=Cc1ccccc1

> <preferred_name>
Benzaldehyde

> <dsstox_substance_id>
DTXSID8039241

> <dsstox_compound_id>
DTXCID90134

> <qc_level>
DSSTox_Low

> <Canonical_QSARr>
O=CC1C=CC=CC=1

> <InChI_Code_QSARr>
InChI=1S/C7H6O/c8-6-7-4-2-1-3-5-7/h1-6H

> <InChI Key_QSARr>
HUMNYLRZRPPJDN-UHFFFAOYSA-N

> <Salt_Solvent>


> <Salt_Solvent_ID>
0

> <MPID>
100386

> <Tr_1_Tst_0>
0

> <Ready_Biodeg>
1.0

$$$$
Row369
  Mrv171c012251911052D          

  8  8  0  0  0  0            999 V2000
    1.6859   -1.9143    0.0000 C   0  0  0  0  0  0  0  0  0  0  0  0
    2.4004   -1.5018    0.0000 C   0  0  0  0  0  0  0  0  0  0  0  0
    2.4004   -0.6768    0.0000 C   0  0  0  0  0  0  0  0  0  0  0  0
    1.6859   -0.2643    0.0000 C   0  0  0  0  0  0  0  0  0  0  0  0
    1.6859    0.5607    0.0000 N   0  0  0  0  0  0  0  0  0  0  0  0
    0.9715    0.9732    0.0000 C   0  0  0  0  0  0  0  0  0  0  0  0
    0.9715   -0.6768    0.0000 C   0  0  0  0  0  0  0  0  0  0  0  0
    0.9715   -1.5018    0.0000 C   0  0  0  0  0  0  0  0  0  0  0  0
  2  1  1  0  0  0  0
  3  2  2  0  0  0  0
  4  3  1  0  0  0  0
  4  5  1  0  0  0  0
  5  6  1  0  0  0  0
  7  4  2  0  0  0  0
  8  7  1  0  0  0  0
  1  8  2  0  0  0  0
M  END
> <ChemID>
100378

> <CAS>
100-61-8

> <Original_SMILES>
CNc1ccccc1

> <preferred_name>
N-Methylaniline

> <dsstox_substance_id>
DTXSID9021841

> <dsstox_compound_id>
DTXCID301841

> <qc_level>
DSSTox_Low

> <Canonical_QSARr>
CNC1C=CC=CC=1

> <InChI_Code_QSARr>
InChI=1S/C7H9N/c1-8-7-5-3-2-4-6-7/h2-6,8H,1H3

> <InChI Key_QSARr>
AFBPFSWMIHJQDM-UHFFFAOYSA-N

> <Salt_Solvent>


> <Salt_Solvent_ID>
0

> <MPID>
100387

> <Tr_1_Tst_0>
1

> <Ready_Biodeg>
0.0

$$$$
Row370
  Mrv171c012251911052D          

  8  8  0  0  0  0            999 V2000
    1.2520   -0.3058    0.0000 C   0  0  0  0  0  0  0  0  0  0  0  0
    0.5376   -0.7183    0.0000 C   0  0  0  0  0  0  0  0  0  0  0  0
    0.5376   -1.5433    0.0000 C   0  0  0  0  0  0  0  0  0  0  0  0
    1.2520   -1.9558    0.0000 C   0  0  0  0  0  0  0  0  0  0  0  0
    1.9665   -1.5433    0.0000 C   0  0  0  0  0  0  0  0  0  0  0  0
    1.9665   -0.7183    0.0000 C   0  0  0  0  0  0  0  0  0  0  0  0
    1.2520    0.5192    0.0000 O   0  0  0  0  0  0  0  0  0  0  0  0
    0.5376    0.9317    0.0000 C   0  0  0  0  0  0  0  0  0  0  0  0
  2  1  2  0  0  0  0
  3  2  1  0  0  0  0
  4  3  2  0  0  0  0
  5  4  1  0  0  0  0
  6  5  2  0  0  0  0
  1  6  1  0  0  0  0
  1  7  1  0  0  0  0
  7  8  1  0  0  0  0
M  END
> <ChemID>
100379

> <CAS>
100-66-3

> <Original_SMILES>
COc1ccccc1

> <preferred_name>
Anisole

> <dsstox_substance_id>
DTXSID4041608

> <dsstox_compound_id>
DTXCID2021608

> <qc_level>
DSSTox_Low

> <Canonical_QSARr>
COC1C=CC=CC=1

> <InChI_Code_QSARr>
InChI=1S/C7H8O/c1-8-7-5-3-2-4-6-7/h2-6H,1H3

> <InChI Key_QSARr>
RDOXTESZEPMUJZ-UHFFFAOYSA-N

> <Salt_Solvent>


> <Salt_Solvent_ID>
0

> <MPID>
100388

> <Tr_1_Tst_0>
1

> <Ready_Biodeg>
1.0

$$$$
Row371
  Mrv171c012251911052D          

  8  8  0  0  0  0            999 V2000
    2.0977   -0.6773    0.0000 N   0  0  0  0  0  0  0  0  0  0  0  0
    1.3833   -0.2648    0.0000 C   0  0  0  0  0  0  0  0  0  0  0  0
    1.3833    0.5602    0.0000 C   0  0  0  0  0  0  0  0  0  0  0  0
    0.6688    0.9727    0.0000 C   0  0  0  0  0  0  0  0  0  0  0  0
    0.6688   -0.6773    0.0000 C   0  0  0  0  0  0  0  0  0  0  0  0
    0.6688   -1.5023    0.0000 C   0  0  0  0  0  0  0  0  0  0  0  0
    1.3833   -1.9148    0.0000 C   0  0  0  0  0  0  0  0  0  0  0  0
    2.0977   -1.5023    0.0000 C   0  0  0  0  0  0  0  0  0  0  0  0
  2  1  1  0  0  0  0
  2  3  1  0  0  0  0
  3  4  2  0  0  0  0
  5  2  2  0  0  0  0
  6  5  1  0  0  0  0
  7  6  2  0  0  0  0
  8  7  1  0  0  0  0
  1  8  2  0  0  0  0
M  END
> <ChemID>
100380

> <CAS>
100-69-6

> <Original_SMILES>
C=Cc1cccc[n]1

> <preferred_name>
2-Vinylpyridine

> <dsstox_substance_id>
DTXSID1026667

> <dsstox_compound_id>
DTXCID406667

> <qc_level>
DSSTox_Low

> <Canonical_QSARr>
C=CC1=CC=CC=N1

> <InChI_Code_QSARr>
InChI=1S/C7H7N/c1-2-7-5-3-4-6-8-7/h2-6H,1H2

> <InChI Key_QSARr>
KGIGUEBEKRSTEW-UHFFFAOYSA-N

> <Salt_Solvent>


> <Salt_Solvent_ID>
0

> <MPID>
100389

> <Tr_1_Tst_0>
1

> <Ready_Biodeg>
0.0

$$$$
Row372
  Mrv171c012251911052D          

 10 12  0  0  0  0            999 V2000
    0.6580   -1.5916    0.0000 N   0  0  0  0  0  0  0  0  0  0  0  0
   -0.0774   -1.9653    0.0000 C   0  0  0  0  0  0  0  0  0  0  0  0
    0.3720   -1.1750    0.0000 N   0  0  0  0  0  0  0  0  0  0  0  0
    0.3720   -0.4276    0.0000 C   0  0  0  0  0  0  0  0  0  0  0  0
    1.1075   -0.0539    0.0000 N   0  0  0  0  0  0  0  0  0  0  0  0
    1.8431   -0.4276    0.0000 C   0  0  0  0  0  0  0  0  0  0  0  0
    1.8431   -1.1750    0.0000 N   0  0  0  0  0  0  0  0  0  0  0  0
    1.1075   -1.5487    0.0000 C   0  0  0  0  0  0  0  0  0  0  0  0
    1.3936   -1.9653    0.0000 C   0  0  0  0  0  0  0  0  0  0  0  0
    0.6580   -0.8442    0.0000 C   0  0  0  0  0  0  0  0  0  0  0  0
  2  1  1  0  0  0  0
  3  2  1  0  0  0  0
 10  5  1  0  0  0  0
  4  5  1  0  0  0  0
  5  6  1  0  0  0  0
  9  1  1  0  0  0  0
  7  8  1  0  0  0  0
  8  3  1  0  0  0  0
  7  9  1  0  0  0  0
  6  7  1  0  0  0  0
  3  4  1  0  0  0  0
  1 10  1  0  0  0  0
M  END
> <ChemID>
100381

> <CAS>
100-97-0

> <Original_SMILES>
C1N2CN3CN1CN(C2)C3

> <preferred_name>
Methenamine

> <dsstox_substance_id>
DTXSID6020692

> <dsstox_compound_id>
DTXCID00692

> <qc_level>
DSSTox_Low

> <Canonical_QSARr>
C1N2CN3CN1CN(C2)C3

> <InChI_Code_QSARr>
InChI=1S/C6H12N4/c1-7-2-9-4-8(1)5-10(3-7)6-9/h1-6H2

> <InChI Key_QSARr>
VKYKSIONXSXAKP-UHFFFAOYSA-N

> <Salt_Solvent>


> <Salt_Solvent_ID>
0

> <MPID>
100390

> <Tr_1_Tst_0>
0

> <Ready_Biodeg>
1.0

$$$$
Row373
  Mrv171c012251911052D          

 17 18  0  0  0  0            999 V2000
    4.9610   -3.4941    0.0000 Cl  0  0  0  0  0  0  0  0  0  0  0  0
    4.2465   -3.0816    0.0000 C   0  0  0  0  0  0  0  0  0  0  0  0
    4.2465   -2.2566    0.0000 C   0  0  0  0  0  0  0  0  0  0  0  0
    3.5321   -1.8441    0.0000 C   0  0  0  0  0  0  0  0  0  0  0  0
    3.5321   -1.0191    0.0000 C   0  0  0  0  0  0  0  0  0  0  0  0
    2.8176   -0.6066    0.0000 C   0  0  0  0  0  0  0  0  0  0  0  0
    2.8176    0.2184    0.0000 C   0  0  0  0  0  0  0  0  0  0  0  0
    2.1031    0.6309    0.0000 C   0  0  0  0  0  0  0  0  0  0  0  0
    1.3887    0.2184    0.0000 C   0  0  0  0  0  0  0  0  0  0  0  0
    0.6742    0.6309    0.0000 N   0  0  0  0  0  0  0  0  0  0  0  0
    1.3887   -0.6066    0.0000 C   0  0  0  0  0  0  0  0  0  0  0  0
    0.6742   -1.0191    0.0000 Cl  0  0  0  0  0  0  0  0  0  0  0  0
    2.1031   -1.0191    0.0000 C   0  0  0  0  0  0  0  0  0  0  0  0
    2.8176   -2.2566    0.0000 C   0  0  0  0  0  0  0  0  0  0  0  0
    2.8176   -3.0816    0.0000 C   0  0  0  0  0  0  0  0  0  0  0  0
    3.5321   -3.4941    0.0000 C   0  0  0  0  0  0  0  0  0  0  0  0
    3.5321   -4.3191    0.0000 N   0  0  0  0  0  0  0  0  0  0  0  0
  1  2  1  0  0  0  0
  3  2  1  0  0  0  0
  4  3  2  0  0  0  0
  4  5  1  0  0  0  0
  5  6  1  0  0  0  0
  7  6  1  0  0  0  0
  8  7  2  0  0  0  0
  9  8  1  0  0  0  0
  9 10  1  0  0  0  0
 11  9  2  0  0  0  0
 11 12  1  0  0  0  0
 13 11  1  0  0  0  0
  6 13  2  0  0  0  0
 14  4  1  0  0  0  0
 15 14  2  0  0  0  0
 16 15  1  0  0  0  0
  2 16  2  0  0  0  0
 16 17  1  0  0  0  0
M  END
> <ChemID>
100382

> <CAS>
101-14-4

> <Original_SMILES>
Nc1ccc(Cc2cc(Cl)c(N)cc2)cc1Cl

> <preferred_name>
4,4'-Methylenebis(2-chloroaniline)

> <dsstox_substance_id>
DTXSID5020865

> <dsstox_compound_id>
DTXCID50865

> <qc_level>
DSSTox_High

> <Canonical_QSARr>
NC1C=CC(CC2=CC(Cl)=C(N)C=C2)=CC=1Cl

> <InChI_Code_QSARr>
InChI=1S/C13H12Cl2N2/c14-10-6-8(1-3-12(10)16)5-9-2-4-13(17)11(15)7-9/h1-4,6-7H,5,16-17H2

> <InChI Key_QSARr>
IBOFVQJTBBUKMU-UHFFFAOYSA-N

> <Salt_Solvent>


> <Salt_Solvent_ID>
0

> <MPID>
100391

> <Tr_1_Tst_0>
1

> <Ready_Biodeg>
0.0

$$$$
Row374
  Mrv171c012251911052D          

 14 14  0  0  0  0            999 V2000
    2.1450   -0.4143    0.0000 O   0  0  0  0  0  0  0  0  0  0  0  0
    2.1450   -1.2393    0.0000 C   0  0  0  0  0  0  0  0  0  0  0  0
    1.4306   -1.6518    0.0000 O   0  0  0  0  0  0  0  0  0  0  0  0
    0.7161   -1.2393    0.0000 C   0  0  0  0  0  0  0  0  0  0  0  0
    0.0016   -1.6518    0.0000 C   0  0  0  0  0  0  0  0  0  0  0  0
    0.7161   -0.4143    0.0000 C   0  0  0  0  0  0  0  0  0  0  0  0
    2.8595   -1.6518    0.0000 N   0  0  0  0  0  0  0  0  0  0  0  0
    3.5740   -1.2393    0.0000 C   0  0  0  0  0  0  0  0  0  0  0  0
    4.2885   -1.6518    0.0000 C   0  0  0  0  0  0  0  0  0  0  0  0
    5.0029   -1.2393    0.0000 C   0  0  0  0  0  0  0  0  0  0  0  0
    5.7174   -1.6518    0.0000 Cl  0  0  0  0  0  0  0  0  0  0  0  0
    5.0029   -0.4143    0.0000 C   0  0  0  0  0  0  0  0  0  0  0  0
    4.2885   -0.0018    0.0000 C   0  0  0  0  0  0  0  0  0  0  0  0
    3.5740   -0.4143    0.0000 C   0  0  0  0  0  0  0  0  0  0  0  0
  1  2  2  0  0  0  0
  2  3  1  0  0  0  0
  3  4  1  0  0  0  0
  4  5  1  0  0  0  0
  4  6  1  0  0  0  0
  2  7  1  0  0  0  0
  7  8  1  0  0  0  0
  9  8  1  0  0  0  0
 10  9  2  0  0  0  0
 10 11  1  0  0  0  0
 12 10  1  0  0  0  0
 13 12  2  0  0  0  0
 14 13  1  0  0  0  0
  8 14  2  0  0  0  0
M  END
> <ChemID>
100383

> <CAS>
101-21-3

> <Original_SMILES>
CC(C)OC(=O)Nc1cccc(Cl)c1

> <preferred_name>
Chlorpropham

> <dsstox_substance_id>
DTXSID7020764

> <dsstox_compound_id>
DTXCID10764

> <qc_level>
DSSTox_High

> <Canonical_QSARr>
CC(C)OC(=O)NC1C=C(Cl)C=CC=1

> <InChI_Code_QSARr>
InChI=1S/C10H12ClNO2/c1-7(2)14-10(13)12-9-5-3-4-8(11)6-9/h3-7H,1-2H3,(H,12,13)

> <InChI Key_QSARr>
CWJSHJJYOPWUGX-UHFFFAOYSA-N

> <Salt_Solvent>


> <Salt_Solvent_ID>
0

> <MPID>
100392

> <Tr_1_Tst_0>
1

> <Ready_Biodeg>
1.0

$$$$
Row375
  Mrv171c012251911052D          

 13 14  0  0  0  0            999 V2000
    0.2022   -1.6301    0.0000 O   0  0  0  0  0  0  0  0  0  0  0  0
    0.6147   -0.9157    0.0000 N   0  0  0  0  0  0  0  0  0  0  0  0
    1.4397   -0.9157    0.0000 N   0  0  0  0  0  0  0  0  0  0  0  0
    1.7554   -0.1535    0.0000 C   0  0  0  0  0  0  0  0  0  0  0  0
    2.5176    0.1622    0.0000 N   0  0  0  0  0  0  0  0  0  0  0  0
    2.7871   -0.9157    0.0000 C   0  0  0  0  0  0  0  0  0  0  0  0
    2.5176   -1.9936    0.0000 N   0  0  0  0  0  0  0  0  0  0  0  0
    3.2798   -1.6779    0.0000 C   0  0  0  0  0  0  0  0  0  0  0  0
    3.5956   -0.9157    0.0000 N   0  0  0  0  0  0  0  0  0  0  0  0
    4.4206   -0.9157    0.0000 N   0  0  0  0  0  0  0  0  0  0  0  0
    4.8331   -0.2012    0.0000 O   0  0  0  0  0  0  0  0  0  0  0  0
    3.2798   -0.1535    0.0000 C   0  0  0  0  0  0  0  0  0  0  0  0
    1.7554   -1.6779    0.0000 C   0  0  0  0  0  0  0  0  0  0  0  0
  1  2  2  0  0  0  0
  2  3  1  0  0  0  0
  4  3  1  0  0  0  0
  5  4  1  0  0  0  0
  5  6  1  0  0  0  0
  6  7  1  0  0  0  0
  7  8  1  0  0  0  0
  8  9  1  0  0  0  0
  9 10  1  0  0  0  0
 10 11  2  0  0  0  0
  9 12  1  0  0  0  0
 12  5  1  0  0  0  0
 13  7  1  0  0  0  0
  3 13  1  0  0  0  0
M  END
> <ChemID>
100384

> <CAS>
101-25-7

> <Original_SMILES>
O=NN1CN2CN(CN(C2)N=O)C1

> <preferred_name>
N,N-Dinitrosopentamethylenetetramine

> <dsstox_substance_id>
DTXSID5020526

> <dsstox_compound_id>
DTXCID70526

> <qc_level>
DSSTox_Low

> <Canonical_QSARr>
O=NN1CN2CN(CN(C2)N=O)C1

> <InChI_Code_QSARr>
InChI=1S/C5H10N6O2/c12-6-10-2-8-1-9(4-10)5-11(3-8)7-13/h1-5H2

> <InChI Key_QSARr>
MWRWFPQBGSZWNV-UHFFFAOYSA-N

> <Salt_Solvent>


> <Salt_Solvent_ID>
0

> <MPID>
100393

> <Tr_1_Tst_0>
1

> <Ready_Biodeg>
1.0

$$$$
Row376
  Mrv171c012251911052D          

 16 16  0  0  0  0            999 V2000
    3.3996   -1.3873    0.0000 C   0  0  0  0  0  0  0  0  0  0  0  0
    2.6851   -1.7998    0.0000 O   0  0  0  0  0  0  0  0  0  0  0  0
    1.9707   -1.3873    0.0000 C   0  0  0  0  0  0  0  0  0  0  0  0
    1.2562   -1.7998    0.0000 C   0  0  0  0  0  0  0  0  0  0  0  0
    0.5417   -2.2123    0.0000 C   0  0  0  0  0  0  0  0  0  0  0  0
   -0.1728   -2.6248    0.0000 C   0  0  0  0  0  0  0  0  0  0  0  0
   -0.8872   -2.2123    0.0000 Cl  0  0  0  0  0  0  0  0  0  0  0  0
    3.3996   -0.5623    0.0000 O   0  0  0  0  0  0  0  0  0  0  0  0
    4.1141   -1.7998    0.0000 N   0  0  0  0  0  0  0  0  0  0  0  0
    4.8285   -1.3873    0.0000 C   0  0  0  0  0  0  0  0  0  0  0  0
    5.5430   -1.7998    0.0000 C   0  0  0  0  0  0  0  0  0  0  0  0
    6.2575   -1.3873    0.0000 C   0  0  0  0  0  0  0  0  0  0  0  0
    6.2575   -0.5623    0.0000 C   0  0  0  0  0  0  0  0  0  0  0  0
    5.5430   -0.1498    0.0000 C   0  0  0  0  0  0  0  0  0  0  0  0
    5.5430    0.6752    0.0000 Cl  0  0  0  0  0  0  0  0  0  0  0  0
    4.8285   -0.5623    0.0000 C   0  0  0  0  0  0  0  0  0  0  0  0
  1  2  1  0  0  0  0
  2  3  1  0  0  0  0
  3  4  1  0  0  0  0
  4  5  3  0  0  0  0
  5  6  1  0  0  0  0
  6  7  1  0  0  0  0
  1  8  2  0  0  0  0
  1  9  1  0  0  0  0
  9 10  1  0  0  0  0
 11 10  2  0  0  0  0
 12 11  1  0  0  0  0
 13 12  2  0  0  0  0
 14 13  1  0  0  0  0
 14 15  1  0  0  0  0
 16 14  2  0  0  0  0
 10 16  1  0  0  0  0
M  END
> <ChemID>
100385

> <CAS>
101-27-9

> <Original_SMILES>
O=C(Nc1cc(Cl)ccc1)OCC#CCCl

> <preferred_name>
Barban

> <dsstox_substance_id>
DTXSID3041617

> <dsstox_compound_id>
DTXCID1021617

> <qc_level>
DSSTox_Low

> <Canonical_QSARr>
O=C(NC1C=C(Cl)C=CC=1)OCC#CCCl

> <InChI_Code_QSARr>
InChI=1S/C11H9Cl2NO2/c12-6-1-2-7-16-11(15)14-10-5-3-4-9(13)8-10/h3-5,8H,6-7H2,(H,14,15)

> <InChI Key_QSARr>
MCOQHIWZJUDQIC-UHFFFAOYSA-N

> <Salt_Solvent>


> <Salt_Solvent_ID>
0

> <MPID>
100394

> <Tr_1_Tst_0>
0

> <Ready_Biodeg>
0.0

$$$$
Row377
  Mrv171c012251911052D          

 12 12  0  0  0  0            999 V2000
    2.3150   -0.3049    0.0000 C   0  0  0  0  0  0  0  0  0  0  0  0
    3.0294   -0.7174    0.0000 O   0  0  0  0  0  0  0  0  0  0  0  0
    2.3150    0.5201    0.0000 N   0  0  0  0  0  0  0  0  0  0  0  0
    3.0294    0.9326    0.0000 C   0  0  0  0  0  0  0  0  0  0  0  0
    1.6005    0.9326    0.0000 C   0  0  0  0  0  0  0  0  0  0  0  0
    1.6005   -0.7174    0.0000 N   0  0  0  0  0  0  0  0  0  0  0  0
    1.6005   -1.5424    0.0000 C   0  0  0  0  0  0  0  0  0  0  0  0
    0.8860   -1.9549    0.0000 C   0  0  0  0  0  0  0  0  0  0  0  0
    0.8860   -2.7799    0.0000 C   0  0  0  0  0  0  0  0  0  0  0  0
    1.6005   -3.1924    0.0000 C   0  0  0  0  0  0  0  0  0  0  0  0
    2.3150   -2.7799    0.0000 C   0  0  0  0  0  0  0  0  0  0  0  0
    2.3150   -1.9549    0.0000 C   0  0  0  0  0  0  0  0  0  0  0  0
  1  2  2  0  0  0  0
  1  3  1  0  0  0  0
  3  4  1  0  0  0  0
  3  5  1  0  0  0  0
  1  6  1  0  0  0  0
  6  7  1  0  0  0  0
  8  7  1  0  0  0  0
  9  8  2  0  0  0  0
 10  9  1  0  0  0  0
 11 10  2  0  0  0  0
 12 11  1  0  0  0  0
  7 12  2  0  0  0  0
M  END
> <ChemID>
100386

> <CAS>
101-42-8

> <Original_SMILES>
CN(C)C(=O)Nc1ccccc1

> <preferred_name>
Fenuron

> <dsstox_substance_id>
DTXSID7037551

> <dsstox_compound_id>
DTXCID5017551

> <qc_level>
DSSTox_High

> <Canonical_QSARr>
CN(C)C(=O)NC1C=CC=CC=1

> <InChI_Code_QSARr>
InChI=1S/C9H12N2O/c1-11(2)9(12)10-8-6-4-3-5-7-8/h3-7H,1-2H3,(H,10,12)

> <InChI Key_QSARr>
XXOYNJXVWVNOOJ-UHFFFAOYSA-N

> <Salt_Solvent>


> <Salt_Solvent_ID>
0

> <MPID>
100395

> <Tr_1_Tst_0>
1

> <Ready_Biodeg>
1.0

$$$$
Row378
  Mrv171c012251911052D          

 14 15  0  0  0  0            999 V2000
    2.9753   -2.7147    0.0000 C   0  0  0  0  0  0  0  0  0  0  0  0
    3.6897   -2.3022    0.0000 C   0  0  0  0  0  0  0  0  0  0  0  0
    3.6897   -1.4772    0.0000 C   0  0  0  0  0  0  0  0  0  0  0  0
    2.9753   -1.0647    0.0000 C   0  0  0  0  0  0  0  0  0  0  0  0
    2.9753   -0.2397    0.0000 C   0  0  0  0  0  0  0  0  0  0  0  0
    2.2608    0.1728    0.0000 C   0  0  0  0  0  0  0  0  0  0  0  0
    2.2608    0.9978    0.0000 C   0  0  0  0  0  0  0  0  0  0  0  0
    1.5463    1.4103    0.0000 C   0  0  0  0  0  0  0  0  0  0  0  0
    0.8319    0.9978    0.0000 C   0  0  0  0  0  0  0  0  0  0  0  0
    0.8319    0.1728    0.0000 C   0  0  0  0  0  0  0  0  0  0  0  0
    1.5463   -0.2397    0.0000 C   0  0  0  0  0  0  0  0  0  0  0  0
    2.2608   -1.4772    0.0000 C   0  0  0  0  0  0  0  0  0  0  0  0
    2.2608   -2.3022    0.0000 C   0  0  0  0  0  0  0  0  0  0  0  0
    2.9753   -3.5397    0.0000 O   0  0  0  0  0  0  0  0  0  0  0  0
  2  1  1  0  0  0  0
  3  2  2  0  0  0  0
  4  3  1  0  0  0  0
  4  5  1  0  0  0  0
  5  6  1  0  0  0  0
  7  6  1  0  0  0  0
  8  7  2  0  0  0  0
  9  8  1  0  0  0  0
 10  9  2  0  0  0  0
 11 10  1  0  0  0  0
  6 11  2  0  0  0  0
 12  4  2  0  0  0  0
 13 12  1  0  0  0  0
  1 13  2  0  0  0  0
  1 14  1  0  0  0  0
M  END
> <ChemID>
100387

> <CAS>
101-53-1

> <Original_SMILES>
Oc1ccc(Cc2ccccc2)cc1

> <preferred_name>
4-Benzylphenol

> <dsstox_substance_id>
DTXSID9047962

> <dsstox_compound_id>
DTXCID5027938

> <qc_level>
DSSTox_Low

> <Canonical_QSARr>
OC1C=CC(CC2C=CC=CC=2)=CC=1

> <InChI_Code_QSARr>
InChI=1S/C13H12O/c14-13-8-6-12(7-9-13)10-11-4-2-1-3-5-11/h1-9,14H,10H2

> <InChI Key_QSARr>
HJSPWKGEPDZNLK-UHFFFAOYSA-N

> <Salt_Solvent>


> <Salt_Solvent_ID>
0

> <MPID>
100396

> <Tr_1_Tst_0>
1

> <Ready_Biodeg>
0.0

$$$$
Row379
  Mrv171c012251911052D          

 17 18  0  0  0  0            999 V2000
    4.4931   -3.6873    0.0000 O   0  0  0  0  0  0  0  0  0  0  0  0
    3.7786   -4.0998    0.0000 C   0  0  0  0  0  0  0  0  0  0  0  0
    4.4931   -2.8623    0.0000 C   0  0  0  0  0  0  0  0  0  0  0  0
    5.2075   -2.4498    0.0000 C   0  0  0  0  0  0  0  0  0  0  0  0
    5.2075   -1.6248    0.0000 C   0  0  0  0  0  0  0  0  0  0  0  0
    4.4931   -1.2123    0.0000 C   0  0  0  0  0  0  0  0  0  0  0  0
    4.4931   -0.3873    0.0000 N   0  0  0  0  0  0  0  0  0  0  0  0
    3.7786    0.0252    0.0000 C   0  0  0  0  0  0  0  0  0  0  0  0
    3.7786    0.8502    0.0000 C   0  0  0  0  0  0  0  0  0  0  0  0
    3.0641    1.2627    0.0000 C   0  0  0  0  0  0  0  0  0  0  0  0
    2.3496    0.8502    0.0000 C   0  0  0  0  0  0  0  0  0  0  0  0
    1.6352    1.2627    0.0000 O   0  0  0  0  0  0  0  0  0  0  0  0
    0.9207    0.8502    0.0000 C   0  0  0  0  0  0  0  0  0  0  0  0
    2.3496    0.0252    0.0000 C   0  0  0  0  0  0  0  0  0  0  0  0
    3.0641   -0.3873    0.0000 C   0  0  0  0  0  0  0  0  0  0  0  0
    3.7786   -1.6248    0.0000 C   0  0  0  0  0  0  0  0  0  0  0  0
    3.7786   -2.4498    0.0000 C   0  0  0  0  0  0  0  0  0  0  0  0
  1  2  1  0  0  0  0
  1  3  1  0  0  0  0
  4  3  1  0  0  0  0
  5  4  2  0  0  0  0
  6  5  1  0  0  0  0
  6  7  1  0  0  0  0
  7  8  1  0  0  0  0
  9  8  1  0  0  0  0
 10  9  2  0  0  0  0
 11 10  1  0  0  0  0
 11 12  1  0  0  0  0
 12 13  1  0  0  0  0
 14 11  2  0  0  0  0
 15 14  1  0  0  0  0
  8 15  2  0  0  0  0
 16  6  2  0  0  0  0
 17 16  1  0  0  0  0
  3 17  2  0  0  0  0
M  END
> <ChemID>
100388

> <CAS>
101-70-2

> <Original_SMILES>
COc1ccc(cc1)Nc1ccc(cc1)OC

> <preferred_name>
4,4'-Dimethoxydiphenylamine

> <dsstox_substance_id>
DTXSID3025093

> <dsstox_compound_id>
DTXCID405093

> <qc_level>
DSSTox_Low

> <Canonical_QSARr>
COC1C=CC(=CC=1)NC1C=CC(=CC=1)OC

> <InChI_Code_QSARr>
InChI=1S/C14H15NO2/c1-16-13-7-3-11(4-8-13)15-12-5-9-14(17-2)10-6-12/h3-10,15H,1-2H3

> <InChI Key_QSARr>
VCOONNWIINSFBA-UHFFFAOYSA-N

> <Salt_Solvent>


> <Salt_Solvent_ID>
0

> <MPID>
100397

> <Tr_1_Tst_0>
1

> <Ready_Biodeg>
0.0

$$$$
Row380
  Mrv171c012251911052D          

 17 18  0  0  0  0            999 V2000
    2.6516   -2.0426    0.0000 N   0  0  0  0  0  0  0  0  0  0  0  0
    2.6516   -1.2176    0.0000 C   0  0  0  0  0  0  0  0  0  0  0  0
    3.3661   -0.8051    0.0000 C   0  0  0  0  0  0  0  0  0  0  0  0
    3.3661    0.0199    0.0000 C   0  0  0  0  0  0  0  0  0  0  0  0
    2.6516    0.4324    0.0000 C   0  0  0  0  0  0  0  0  0  0  0  0
    2.6516    1.2574    0.0000 N   0  0  0  0  0  0  0  0  0  0  0  0
    1.9371    1.6699    0.0000 C   0  0  0  0  0  0  0  0  0  0  0  0
    1.9371    2.4949    0.0000 C   0  0  0  0  0  0  0  0  0  0  0  0
    1.2227    1.2574    0.0000 C   0  0  0  0  0  0  0  0  0  0  0  0
    1.9371    0.0199    0.0000 C   0  0  0  0  0  0  0  0  0  0  0  0
    1.9371   -0.8051    0.0000 C   0  0  0  0  0  0  0  0  0  0  0  0
    3.3661   -2.4551    0.0000 C   0  0  0  0  0  0  0  0  0  0  0  0
    3.3661   -3.2801    0.0000 C   0  0  0  0  0  0  0  0  0  0  0  0
    4.0806   -3.6926    0.0000 C   0  0  0  0  0  0  0  0  0  0  0  0
    4.7950   -3.2801    0.0000 C   0  0  0  0  0  0  0  0  0  0  0  0
    4.7950   -2.4551    0.0000 C   0  0  0  0  0  0  0  0  0  0  0  0
    4.0806   -2.0426    0.0000 C   0  0  0  0  0  0  0  0  0  0  0  0
  1  2  1  0  0  0  0
  3  2  1  0  0  0  0
  4  3  2  0  0  0  0
  5  4  1  0  0  0  0
  5  6  1  0  0  0  0
  6  7  1  0  0  0  0
  7  8  1  0  0  0  0
  7  9  1  0  0  0  0
 10  5  2  0  0  0  0
 11 10  1  0  0  0  0
  2 11  2  0  0  0  0
  1 12  1  0  0  0  0
 13 12  1  0  0  0  0
 14 13  2  0  0  0  0
 15 14  1  0  0  0  0
 16 15  2  0  0  0  0
 17 16  1  0  0  0  0
 12 17  2  0  0  0  0
M  END
> <ChemID>
100389

> <CAS>
101-72-4

> <Original_SMILES>
CC(C)Nc1ccc(cc1)Nc1ccccc1

> <preferred_name>
N-Isopropyl-N'-phenyl-p-phenylenediamine

> <dsstox_substance_id>
DTXSID1025485

> <dsstox_compound_id>
DTXCID705485

> <qc_level>
DSSTox_Low

> <Canonical_QSARr>
CC(C)NC1C=CC(=CC=1)NC1C=CC=CC=1

> <InChI_Code_QSARr>
InChI=1S/C15H18N2/c1-12(2)16-14-8-10-15(11-9-14)17-13-6-4-3-5-7-13/h3-12,16-17H,1-2H3

> <InChI Key_QSARr>
OUBMGJOQLXMSNT-UHFFFAOYSA-N

> <Salt_Solvent>


> <Salt_Solvent_ID>
0

> <MPID>
100398

> <Tr_1_Tst_0>
0

> <Ready_Biodeg>
0.0

$$$$
Row381
  Mrv171c012251911052D          

 15 16  0  0  0  0            999 V2000
    3.6216   -2.9165    0.0000 C   0  0  0  0  0  0  0  0  0  0  0  0
    4.3361   -2.5040    0.0000 C   0  0  0  0  0  0  0  0  0  0  0  0
    4.3361   -1.6790    0.0000 C   0  0  0  0  0  0  0  0  0  0  0  0
    3.6216   -1.2665    0.0000 C   0  0  0  0  0  0  0  0  0  0  0  0
    3.6216   -0.4415    0.0000 C   0  0  0  0  0  0  0  0  0  0  0  0
    2.9071   -0.0290    0.0000 C   0  0  0  0  0  0  0  0  0  0  0  0
    2.9071    0.7960    0.0000 C   0  0  0  0  0  0  0  0  0  0  0  0
    2.1927    1.2085    0.0000 C   0  0  0  0  0  0  0  0  0  0  0  0
    1.4782    0.7960    0.0000 C   0  0  0  0  0  0  0  0  0  0  0  0
    0.7637    1.2085    0.0000 N   0  0  0  0  0  0  0  0  0  0  0  0
    1.4782   -0.0290    0.0000 C   0  0  0  0  0  0  0  0  0  0  0  0
    2.1927   -0.4415    0.0000 C   0  0  0  0  0  0  0  0  0  0  0  0
    2.9071   -1.6790    0.0000 C   0  0  0  0  0  0  0  0  0  0  0  0
    2.9071   -2.5040    0.0000 C   0  0  0  0  0  0  0  0  0  0  0  0
    3.6216   -3.7415    0.0000 N   0  0  0  0  0  0  0  0  0  0  0  0
  2  1  2  0  0  0  0
  3  2  1  0  0  0  0
  4  3  2  0  0  0  0
  4  5  1  0  0  0  0
  5  6  1  0  0  0  0
  7  6  1  0  0  0  0
  8  7  2  0  0  0  0
  9  8  1  0  0  0  0
  9 10  1  0  0  0  0
 11  9  2  0  0  0  0
 12 11  1  0  0  0  0
  6 12  2  0  0  0  0
 13  4  1  0  0  0  0
 14 13  2  0  0  0  0
  1 14  1  0  0  0  0
  1 15  1  0  0  0  0
M  END
> <ChemID>
100390

> <CAS>
101-77-9

> <Original_SMILES>
Nc1ccc(Cc2ccc(N)cc2)cc1

> <preferred_name>
4,4'-Methylenedianiline

> <dsstox_substance_id>
DTXSID6022422

> <dsstox_compound_id>
DTXCID402422

> <qc_level>
DSSTox_Low

> <Canonical_QSARr>
NC1C=CC(CC2C=CC(N)=CC=2)=CC=1

> <InChI_Code_QSARr>
InChI=1S/C13H14N2/c14-12-5-1-10(2-6-12)9-11-3-7-13(15)8-4-11/h1-8H,9,14-15H2

> <InChI Key_QSARr>
YBRVSVVVWCFQMG-UHFFFAOYSA-N

> <Salt_Solvent>


> <Salt_Solvent_ID>
0

> <MPID>
100399

> <Tr_1_Tst_0>
1

> <Ready_Biodeg>
0.0

$$$$
Row382
  Mrv171c012251911052D          

 15 16  0  0  0  0            999 V2000
    3.6216   -3.7415    0.0000 N   0  0  0  0  0  0  0  0  0  0  0  0
    3.6216   -2.9165    0.0000 C   0  0  0  0  0  0  0  0  0  0  0  0
    4.3361   -2.5040    0.0000 C   0  0  0  0  0  0  0  0  0  0  0  0
    4.3361   -1.6790    0.0000 C   0  0  0  0  0  0  0  0  0  0  0  0
    3.6216   -1.2665    0.0000 C   0  0  0  0  0  0  0  0  0  0  0  0
    3.6216   -0.4415    0.0000 O   0  0  0  0  0  0  0  0  0  0  0  0
    2.9071   -0.0290    0.0000 C   0  0  0  0  0  0  0  0  0  0  0  0
    2.9071    0.7960    0.0000 C   0  0  0  0  0  0  0  0  0  0  0  0
    2.1927    1.2085    0.0000 C   0  0  0  0  0  0  0  0  0  0  0  0
    1.4782    0.7960    0.0000 C   0  0  0  0  0  0  0  0  0  0  0  0
    0.7637    1.2085    0.0000 N   0  0  0  0  0  0  0  0  0  0  0  0
    1.4782   -0.0290    0.0000 C   0  0  0  0  0  0  0  0  0  0  0  0
    2.1927   -0.4415    0.0000 C   0  0  0  0  0  0  0  0  0  0  0  0
    2.9071   -1.6790    0.0000 C   0  0  0  0  0  0  0  0  0  0  0  0
    2.9071   -2.5040    0.0000 C   0  0  0  0  0  0  0  0  0  0  0  0
  1  2  1  0  0  0  0
  3  2  1  0  0  0  0
  4  3  2  0  0  0  0
  5  4  1  0  0  0  0
  5  6  1  0  0  0  0
  6  7  1  0  0  0  0
  8  7  1  0  0  0  0
  9  8  2  0  0  0  0
 10  9  1  0  0  0  0
 10 11  1  0  0  0  0
 12 10  2  0  0  0  0
 13 12  1  0  0  0  0
  7 13  2  0  0  0  0
 14  5  2  0  0  0  0
 15 14  1  0  0  0  0
  2 15  2  0  0  0  0
M  END
> <ChemID>
100391

> <CAS>
101-80-4

> <Original_SMILES>
Nc1ccc(cc1)Oc1ccc(N)cc1

> <preferred_name>
4,4'-Oxydianiline

> <dsstox_substance_id>
DTXSID0021094

> <dsstox_compound_id>
DTXCID401094

> <qc_level>
DSSTox_Low

> <Canonical_QSARr>
NC1C=CC(=CC=1)OC1C=CC(N)=CC=1

> <InChI_Code_QSARr>
InChI=1S/C12H12N2O/c13-9-1-5-11(6-2-9)15-12-7-3-10(14)4-8-12/h1-8H,13-14H2

> <InChI Key_QSARr>
HLBLWEWZXPIGSM-UHFFFAOYSA-N

> <Salt_Solvent>


> <Salt_Solvent_ID>
0

> <MPID>
100400

> <Tr_1_Tst_0>
1

> <Ready_Biodeg>
0.0

$$$$
Row383
  Mrv171c012251911052D          

 13 14  0  0  0  0            999 V2000
    2.7968   -0.3827    0.0000 C   0  0  0  0  0  0  0  0  0  0  0  0
    2.7968   -1.2077    0.0000 C   0  0  0  0  0  0  0  0  0  0  0  0
    2.0824   -1.6202    0.0000 C   0  0  0  0  0  0  0  0  0  0  0  0
    2.0824   -2.4452    0.0000 C   0  0  0  0  0  0  0  0  0  0  0  0
    2.7968   -2.8577    0.0000 C   0  0  0  0  0  0  0  0  0  0  0  0
    3.5113   -2.4452    0.0000 C   0  0  0  0  0  0  0  0  0  0  0  0
    3.5113   -1.6202    0.0000 C   0  0  0  0  0  0  0  0  0  0  0  0
    2.0824    0.0298    0.0000 C   0  0  0  0  0  0  0  0  0  0  0  0
    2.0824    0.8548    0.0000 C   0  0  0  0  0  0  0  0  0  0  0  0
    1.3679    1.2673    0.0000 C   0  0  0  0  0  0  0  0  0  0  0  0
    0.6534    0.8548    0.0000 C   0  0  0  0  0  0  0  0  0  0  0  0
    0.6534    0.0298    0.0000 C   0  0  0  0  0  0  0  0  0  0  0  0
    1.3679   -0.3827    0.0000 C   0  0  0  0  0  0  0  0  0  0  0  0
  1  2  1  0  0  0  0
  3  2  1  0  0  0  0
  4  3  2  0  0  0  0
  5  4  1  0  0  0  0
  6  5  2  0  0  0  0
  7  6  1  0  0  0  0
  2  7  2  0  0  0  0
  1  8  1  0  0  0  0
  9  8  2  0  0  0  0
 10  9  1  0  0  0  0
 11 10  2  0  0  0  0
 12 11  1  0  0  0  0
 13 12  2  0  0  0  0
  8 13  1  0  0  0  0
M  END
> <ChemID>
100392

> <CAS>
101-81-5

> <Original_SMILES>
C(c1ccccc1)c1ccccc1

> <preferred_name>
Diphenylmethane

> <dsstox_substance_id>
DTXSID1041891

> <dsstox_compound_id>
DTXCID9021891

> <qc_level>
DSSTox_Low

> <Canonical_QSARr>
C(C1C=CC=CC=1)C1C=CC=CC=1

> <InChI_Code_QSARr>
InChI=1S/C13H12/c1-3-7-12(8-4-1)11-13-9-5-2-6-10-13/h1-10H,11H2

> <InChI Key_QSARr>
CZZYITDELCSZES-UHFFFAOYSA-N

> <Salt_Solvent>


> <Salt_Solvent_ID>
0

> <MPID>
100401

> <Tr_1_Tst_0>
1

> <Ready_Biodeg>
0.0

$$$$
Row384
  Mrv171c012251911052D          

 13 14  0  0  0  0            999 V2000
    2.8010   -0.5071    0.0000 N   0  0  0  0  0  0  0  0  0  0  0  0
    2.8010   -1.3321    0.0000 C   0  0  0  0  0  0  0  0  0  0  0  0
    2.0865   -1.7446    0.0000 C   0  0  0  0  0  0  0  0  0  0  0  0
    2.0865   -2.5696    0.0000 C   0  0  0  0  0  0  0  0  0  0  0  0
    2.8010   -2.9821    0.0000 C   0  0  0  0  0  0  0  0  0  0  0  0
    3.5155   -2.5696    0.0000 C   0  0  0  0  0  0  0  0  0  0  0  0
    3.5155   -1.7446    0.0000 C   0  0  0  0  0  0  0  0  0  0  0  0
    2.0865   -0.0946    0.0000 C   0  0  0  0  0  0  0  0  0  0  0  0
    2.0865    0.7304    0.0000 C   0  0  0  0  0  0  0  0  0  0  0  0
    1.3721    1.1429    0.0000 C   0  0  0  0  0  0  0  0  0  0  0  0
    0.6576    0.7304    0.0000 C   0  0  0  0  0  0  0  0  0  0  0  0
    0.6576   -0.0946    0.0000 C   0  0  0  0  0  0  0  0  0  0  0  0
    1.3721   -0.5071    0.0000 C   0  0  0  0  0  0  0  0  0  0  0  0
  1  2  1  0  0  0  0
  3  2  1  0  0  0  0
  4  3  1  0  0  0  0
  5  4  1  0  0  0  0
  6  5  1  0  0  0  0
  7  6  1  0  0  0  0
  2  7  1  0  0  0  0
  1  8  1  0  0  0  0
  9  8  1  0  0  0  0
 10  9  1  0  0  0  0
 11 10  1  0  0  0  0
 12 11  1  0  0  0  0
 13 12  1  0  0  0  0
  8 13  1  0  0  0  0
M  END
> <ChemID>
100393

> <CAS>
101-83-7

> <Original_SMILES>
C1CCCCC1NC1CCCCC1

> <preferred_name>
Dicyclohexylamine

> <dsstox_substance_id>
DTXSID6025018

> <dsstox_compound_id>
DTXCID005018

> <qc_level>
DSSTox_Low

> <Canonical_QSARr>
C1CCCCC1NC1CCCCC1

> <InChI_Code_QSARr>
InChI=1S/C12H23N/c1-3-7-11(8-4-1)13-12-9-5-2-6-10-12/h11-13H,1-10H2

> <InChI Key_QSARr>
XBPCUCUWBYBCDP-UHFFFAOYSA-N

> <Salt_Solvent>


> <Salt_Solvent_ID>
0

> <MPID>
100402

> <Tr_1_Tst_0>
0

> <Ready_Biodeg>
1.0

$$$$
Row385
  Mrv171c012251911052D          

 13 14  0  0  0  0            999 V2000
    3.5155   -1.7446    0.0000 C   0  0  0  0  0  0  0  0  0  0  0  0
    2.8010   -1.3321    0.0000 C   0  0  0  0  0  0  0  0  0  0  0  0
    2.8010   -0.5071    0.0000 O   0  0  0  0  0  0  0  0  0  0  0  0
    2.0865   -0.0946    0.0000 C   0  0  0  0  0  0  0  0  0  0  0  0
    2.0865    0.7304    0.0000 C   0  0  0  0  0  0  0  0  0  0  0  0
    1.3721    1.1429    0.0000 C   0  0  0  0  0  0  0  0  0  0  0  0
    0.6576    0.7304    0.0000 C   0  0  0  0  0  0  0  0  0  0  0  0
    0.6576   -0.0946    0.0000 C   0  0  0  0  0  0  0  0  0  0  0  0
    1.3721   -0.5071    0.0000 C   0  0  0  0  0  0  0  0  0  0  0  0
    2.0865   -1.7446    0.0000 C   0  0  0  0  0  0  0  0  0  0  0  0
    2.0865   -2.5696    0.0000 C   0  0  0  0  0  0  0  0  0  0  0  0
    2.8010   -2.9821    0.0000 C   0  0  0  0  0  0  0  0  0  0  0  0
    3.5155   -2.5696    0.0000 C   0  0  0  0  0  0  0  0  0  0  0  0
  2  1  1  0  0  0  0
  2  3  1  0  0  0  0
  3  4  1  0  0  0  0
  5  4  1  0  0  0  0
  6  5  2  0  0  0  0
  7  6  1  0  0  0  0
  8  7  2  0  0  0  0
  9  8  1  0  0  0  0
  4  9  2  0  0  0  0
 10  2  2  0  0  0  0
 11 10  1  0  0  0  0
 12 11  2  0  0  0  0
 13 12  1  0  0  0  0
  1 13  2  0  0  0  0
M  END
> <ChemID>
100394

> <CAS>
101-84-8

> <Original_SMILES>
c1ccccc1Oc1ccccc1

> <preferred_name>
Diphenyl oxide

> <dsstox_substance_id>
DTXSID9021847

> <dsstox_compound_id>
DTXCID701847

> <qc_level>
DSSTox_Low

> <Canonical_QSARr>
C1=CC=CC=C1OC1C=CC=CC=1

> <InChI_Code_QSARr>
InChI=1S/C12H10O/c1-3-7-11(8-4-1)13-12-9-5-2-6-10-12/h1-10H

> <InChI Key_QSARr>
USIUVYZYUHIAEV-UHFFFAOYSA-N

> <Salt_Solvent>


> <Salt_Solvent_ID>
0

> <MPID>
100403

> <Tr_1_Tst_0>
1

> <Ready_Biodeg>
1.0

$$$$
Row386
  Mrv171c012251911052D          

 16 17  0  0  0  0            999 V2000
    2.4129   -1.1875    0.0000 N   0  0  0  0  0  0  0  0  0  0  0  0
    3.1274   -0.7750    0.0000 C   0  0  0  0  0  0  0  0  0  0  0  0
    3.8418   -1.1875    0.0000 N   0  0  0  0  0  0  0  0  0  0  0  0
    3.8418   -2.0125    0.0000 C   0  0  0  0  0  0  0  0  0  0  0  0
    3.1274   -2.4250    0.0000 C   0  0  0  0  0  0  0  0  0  0  0  0
    3.1274   -3.2500    0.0000 C   0  0  0  0  0  0  0  0  0  0  0  0
    3.8418   -3.6625    0.0000 C   0  0  0  0  0  0  0  0  0  0  0  0
    4.5563   -3.2500    0.0000 C   0  0  0  0  0  0  0  0  0  0  0  0
    4.5563   -2.4250    0.0000 C   0  0  0  0  0  0  0  0  0  0  0  0
    3.1274    0.0500    0.0000 N   0  0  0  0  0  0  0  0  0  0  0  0
    2.4129    0.4625    0.0000 C   0  0  0  0  0  0  0  0  0  0  0  0
    2.4129    1.2875    0.0000 C   0  0  0  0  0  0  0  0  0  0  0  0
    1.6984    1.7000    0.0000 C   0  0  0  0  0  0  0  0  0  0  0  0
    0.9839    1.2875    0.0000 C   0  0  0  0  0  0  0  0  0  0  0  0
    0.9839    0.4625    0.0000 C   0  0  0  0  0  0  0  0  0  0  0  0
    1.6984    0.0500    0.0000 C   0  0  0  0  0  0  0  0  0  0  0  0
  1  2  2  0  0  0  0
  2  3  1  0  0  0  0
  3  4  1  0  0  0  0
  5  4  1  0  0  0  0
  6  5  2  0  0  0  0
  7  6  1  0  0  0  0
  8  7  2  0  0  0  0
  9  8  1  0  0  0  0
  4  9  2  0  0  0  0
  2 10  1  0  0  0  0
 10 11  1  0  0  0  0
 12 11  1  0  0  0  0
 13 12  2  0  0  0  0
 14 13  1  0  0  0  0
 15 14  2  0  0  0  0
 16 15  1  0  0  0  0
 11 16  2  0  0  0  0
M  END
> <ChemID>
100395

> <CAS>
102-06-7

> <Original_SMILES>
N=C(Nc1ccccc1)Nc1ccccc1

> <preferred_name>
1,3-Diphenylguanidine

> <dsstox_substance_id>
DTXSID3025178

> <dsstox_compound_id>
DTXCID005178

> <qc_level>
DSSTox_Low

> <Canonical_QSARr>
N=C(NC1C=CC=CC=1)NC1C=CC=CC=1

> <InChI_Code_QSARr>
InChI=1S/C13H13N3/c14-13(15-11-7-3-1-4-8-11)16-12-9-5-2-6-10-12/h1-10H,(H3,14,15,16)

> <InChI Key_QSARr>
OWRCNXZUPFZXOS-UHFFFAOYSA-N

> <Salt_Solvent>


> <Salt_Solvent_ID>
0

> <MPID>
100404

> <Tr_1_Tst_0>
1

> <Ready_Biodeg>
0.0

$$$$
Row387
  Mrv171c012251911052D          

 10 10  0  0  0  0            999 V2000
    1.0003   -0.1650    0.0000 C   0  0  0  0  0  0  0  0  0  0  0  0
    1.0003   -0.9900    0.0000 C   0  0  0  0  0  0  0  0  0  0  0  0
    0.2858   -1.4025    0.0000 Cl  0  0  0  0  0  0  0  0  0  0  0  0
    1.7147    0.2475    0.0000 C   0  0  0  0  0  0  0  0  0  0  0  0
    1.7147    1.0725    0.0000 C   0  0  0  0  0  0  0  0  0  0  0  0
    1.0003    1.4850    0.0000 C   0  0  0  0  0  0  0  0  0  0  0  0
    1.0003    2.3100    0.0000 Cl  0  0  0  0  0  0  0  0  0  0  0  0
    0.2858    1.0725    0.0000 C   0  0  0  0  0  0  0  0  0  0  0  0
   -0.4287    1.4850    0.0000 Cl  0  0  0  0  0  0  0  0  0  0  0  0
    0.2858    0.2475    0.0000 C   0  0  0  0  0  0  0  0  0  0  0  0
  1  2  1  0  0  0  0
  2  3  1  0  0  0  0
  4  1  1  0  0  0  0
  5  4  2  0  0  0  0
  6  5  1  0  0  0  0
  6  7  1  0  0  0  0
  8  6  2  0  0  0  0
  8  9  1  0  0  0  0
 10  8  1  0  0  0  0
  1 10  2  0  0  0  0
M  END
> <ChemID>
100396

> <CAS>
102-47-6

> <Original_SMILES>
ClCc1cc(Cl)c(Cl)cc1

> <preferred_name>
Benzene, 1,2-dichloro-4-(chloromethyl)-

> <dsstox_substance_id>
DTXSID9059252

> <dsstox_compound_id>
DTXCID2032681

> <qc_level>
Public_High

> <Canonical_QSARr>
ClCC1=CC(Cl)=C(Cl)C=C1

> <InChI_Code_QSARr>
InChI=1S/C7H5Cl3/c8-4-5-1-2-6(9)7(10)3-5/h1-3H,4H2

> <InChI Key_QSARr>
YZIFVWOCPGPNHB-UHFFFAOYSA-N

> <Salt_Solvent>


> <Salt_Solvent_ID>
0

> <MPID>
100406

> <Tr_1_Tst_0>
1

> <Ready_Biodeg>
0.0

$$$$
Row388
  Mrv171c012251911052D          

 10  9  0  0  0  0            999 V2000
    1.9211   -2.3944    0.0000 N   0  0  0  0  0  0  0  0  0  0  0  0
    1.9211   -3.2194    0.0000 C   0  0  0  0  0  0  0  0  0  0  0  0
    2.6356   -3.6319    0.0000 C   0  0  0  0  0  0  0  0  0  0  0  0
    2.6356   -4.4569    0.0000 C   0  0  0  0  0  0  0  0  0  0  0  0
    1.2066   -1.9819    0.0000 C   0  0  0  0  0  0  0  0  0  0  0  0
    1.2066   -1.1569    0.0000 C   0  0  0  0  0  0  0  0  0  0  0  0
    0.4922   -0.7444    0.0000 C   0  0  0  0  0  0  0  0  0  0  0  0
    2.6356   -1.9819    0.0000 C   0  0  0  0  0  0  0  0  0  0  0  0
    2.6356   -1.1569    0.0000 C   0  0  0  0  0  0  0  0  0  0  0  0
    3.3501   -0.7444    0.0000 C   0  0  0  0  0  0  0  0  0  0  0  0
  1  2  1  0  0  0  0
  2  3  1  0  0  0  0
  3  4  2  0  0  0  0
  1  5  1  0  0  0  0
  5  6  1  0  0  0  0
  6  7  2  0  0  0  0
  1  8  1  0  0  0  0
  8  9  1  0  0  0  0
  9 10  2  0  0  0  0
M  END
> <ChemID>
100397

> <CAS>
102-70-5

> <Original_SMILES>
C=CCN(CC=C)CC=C

> <preferred_name>
Triallylamine

> <dsstox_substance_id>
DTXSID5026174

> <dsstox_compound_id>
DTXCID506174

> <qc_level>
DSSTox_Low

> <Canonical_QSARr>
C=CCN(CC=C)CC=C

> <InChI_Code_QSARr>
InChI=1S/C9H15N/c1-4-7-10(8-5-2)9-6-3/h4-6H,1-3,7-9H2

> <InChI Key_QSARr>
VPYJNCGUESNPMV-UHFFFAOYSA-N

> <Salt_Solvent>


> <Salt_Solvent_ID>
0

> <MPID>
100407

> <Tr_1_Tst_0>
0

> <Ready_Biodeg>
0.0

$$$$
Row389
  Mrv171c012251911052D          

 10  9  0  0  0  0            999 V2000
    1.9752   -3.3108    0.0000 O   0  0  0  0  0  0  0  0  0  0  0  0
    1.9752   -2.4858    0.0000 C   0  0  0  0  0  0  0  0  0  0  0  0
    1.2608   -2.0733    0.0000 C   0  0  0  0  0  0  0  0  0  0  0  0
    1.2608   -1.2483    0.0000 N   0  0  0  0  0  0  0  0  0  0  0  0
    0.5463   -0.8358    0.0000 C   0  0  0  0  0  0  0  0  0  0  0  0
    0.5463   -0.0108    0.0000 C   0  0  0  0  0  0  0  0  0  0  0  0
   -0.1682    0.4017    0.0000 O   0  0  0  0  0  0  0  0  0  0  0  0
    1.9752   -0.8358    0.0000 C   0  0  0  0  0  0  0  0  0  0  0  0
    1.9752   -0.0108    0.0000 C   0  0  0  0  0  0  0  0  0  0  0  0
    2.6897    0.4017    0.0000 O   0  0  0  0  0  0  0  0  0  0  0  0
  1  2  1  0  0  0  0
  2  3  1  0  0  0  0
  3  4  1  0  0  0  0
  4  5  1  0  0  0  0
  5  6  1  0  0  0  0
  6  7  1  0  0  0  0
  4  8  1  0  0  0  0
  8  9  1  0  0  0  0
  9 10  1  0  0  0  0
M  END
> <ChemID>
100398

> <CAS>
102-71-6

> <Original_SMILES>
OCCN(CCO)CCO

> <preferred_name>
Triethanolamine

> <dsstox_substance_id>
DTXSID9021392

> <dsstox_compound_id>
DTXCID201392

> <qc_level>
DSSTox_High

> <Canonical_QSARr>
OCCN(CCO)CCO

> <InChI_Code_QSARr>
InChI=1S/C6H15NO3/c8-4-1-7(2-5-9)3-6-10/h8-10H,1-6H2

> <InChI Key_QSARr>
GSEJCLTVZPLZKY-UHFFFAOYSA-N

> <Salt_Solvent>


> <Salt_Solvent_ID>
0

> <MPID>
100408

> <Tr_1_Tst_0>
1

> <Ready_Biodeg>
0.0

$$$$
Row390
  Mrv171c012251911052D          

 15 14  0  0  0  0            999 V2000
    2.0312   -2.6988    0.0000 C   0  0  0  0  0  0  0  0  0  0  0  0
    1.3168   -2.2863    0.0000 O   0  0  0  0  0  0  0  0  0  0  0  0
    0.6023   -2.6988    0.0000 C   0  0  0  0  0  0  0  0  0  0  0  0
   -0.1122   -2.2863    0.0000 C   0  0  0  0  0  0  0  0  0  0  0  0
    0.6023   -3.5238    0.0000 O   0  0  0  0  0  0  0  0  0  0  0  0
    2.7457   -2.2863    0.0000 C   0  0  0  0  0  0  0  0  0  0  0  0
    2.7457   -1.4613    0.0000 O   0  0  0  0  0  0  0  0  0  0  0  0
    2.0312   -1.0488    0.0000 C   0  0  0  0  0  0  0  0  0  0  0  0
    1.3168   -1.4613    0.0000 C   0  0  0  0  0  0  0  0  0  0  0  0
    2.0312   -0.2238    0.0000 O   0  0  0  0  0  0  0  0  0  0  0  0
    3.4602   -2.6988    0.0000 C   0  0  0  0  0  0  0  0  0  0  0  0
    4.1747   -2.2863    0.0000 O   0  0  0  0  0  0  0  0  0  0  0  0
    4.8891   -2.6988    0.0000 C   0  0  0  0  0  0  0  0  0  0  0  0
    5.6036   -2.2863    0.0000 C   0  0  0  0  0  0  0  0  0  0  0  0
    4.8891   -3.5238    0.0000 O   0  0  0  0  0  0  0  0  0  0  0  0
  1  2  1  0  0  0  0
  2  3  1  0  0  0  0
  3  4  1  0  0  0  0
  3  5  2  0  0  0  0
  1  6  1  0  0  0  0
  6  7  1  0  0  0  0
  7  8  1  0  0  0  0
  8  9  1  0  0  0  0
  8 10  2  0  0  0  0
  6 11  1  0  0  0  0
 11 12  1  0  0  0  0
 12 13  1  0  0  0  0
 13 14  1  0  0  0  0
 13 15  2  0  0  0  0
M  END
> <ChemID>
100399

> <CAS>
102-76-1

> <Original_SMILES>
CC(=O)OC(COC(C)=O)COC(C)=O

> <preferred_name>
Triacetin

> <dsstox_substance_id>
DTXSID3026691

> <dsstox_compound_id>
DTXCID906691

> <qc_level>
DSSTox_High

> <Canonical_QSARr>
CC(=O)OC(COC(C)=O)COC(C)=O

> <InChI_Code_QSARr>
InChI=1S/C9H14O6/c1-6(10)13-4-9(15-8(3)12)5-14-7(2)11/h9H,4-5H2,1-3H3

> <InChI Key_QSARr>
URAYPUMNDPQOKB-UHFFFAOYSA-N

> <Salt_Solvent>


> <Salt_Solvent_ID>
0

> <MPID>
100409

> <Tr_1_Tst_0>
1

> <Ready_Biodeg>
1.0

$$$$
Row391
  Mrv171c012251911052D          

 16 18  0  0  0  0            999 V2000
    3.0404    0.2627    0.0000 N   0  0  0  0  0  0  0  0  0  0  0  0
    3.8250    0.0077    0.0000 C   0  0  0  0  0  0  0  0  0  0  0  0
    4.5395    0.4202    0.0000 C   0  0  0  0  0  0  0  0  0  0  0  0
    5.2539    0.0077    0.0000 C   0  0  0  0  0  0  0  0  0  0  0  0
    5.2539   -0.8173    0.0000 C   0  0  0  0  0  0  0  0  0  0  0  0
    4.5395   -1.2298    0.0000 C   0  0  0  0  0  0  0  0  0  0  0  0
    3.8250   -0.8173    0.0000 C   0  0  0  0  0  0  0  0  0  0  0  0
    3.0404   -1.0722    0.0000 S   0  0  0  0  0  0  0  0  0  0  0  0
    2.5554   -0.4048    0.0000 C   0  0  0  0  0  0  0  0  0  0  0  0
    1.7304   -0.4048    0.0000 S   0  0  0  0  0  0  0  0  0  0  0  0
    1.3179   -1.1192    0.0000 N   0  0  0  0  0  0  0  0  0  0  0  0
    0.4929   -1.1192    0.0000 C   0  0  0  0  0  0  0  0  0  0  0  0
    0.0804   -1.8337    0.0000 C   0  0  0  0  0  0  0  0  0  0  0  0
    0.4929   -2.5482    0.0000 O   0  0  0  0  0  0  0  0  0  0  0  0
    1.3179   -2.5482    0.0000 C   0  0  0  0  0  0  0  0  0  0  0  0
    1.7304   -1.8337    0.0000 C   0  0  0  0  0  0  0  0  0  0  0  0
  2  1  1  0  0  0  0
  2  3  1  0  0  0  0
  3  4  2  0  0  0  0
  4  5  1  0  0  0  0
  5  6  2  0  0  0  0
  6  7  1  0  0  0  0
  7  2  2  0  0  0  0
  8  7  1  0  0  0  0
  9  8  1  0  0  0  0
  1  9  2  0  0  0  0
  9 10  1  0  0  0  0
 10 11  1  0  0  0  0
 12 11  1  0  0  0  0
 13 12  1  0  0  0  0
 14 13  1  0  0  0  0
 15 14  1  0  0  0  0
 16 15  1  0  0  0  0
 11 16  1  0  0  0  0
M  END
> <ChemID>
100400

> <CAS>
102-77-2

> <Original_SMILES>
C1COCCN1Sc1[n]c2ccccc2[s]1

> <preferred_name>
N-Oxydiethylenebenzothiazole-2-sulfenamide

> <dsstox_substance_id>
DTXSID0021096

> <dsstox_compound_id>
DTXCID201096

> <qc_level>
DSSTox_Low

> <Canonical_QSARr>
C1COCCN1SC1=NC2C=CC=CC=2S1

> <InChI_Code_QSARr>
InChI=1S/C11H12N2OS2/c1-2-4-10-9(3-1)12-11(15-10)16-13-5-7-14-8-6-13/h1-4H,5-8H2

> <InChI Key_QSARr>
MHKLKWCYGIBEQF-UHFFFAOYSA-N

> <Salt_Solvent>


> <Salt_Solvent_ID>
0

> <MPID>
100410

> <Tr_1_Tst_0>
1

> <Ready_Biodeg>
0.0

$$$$
Row392
  Mrv171c012251911052D          

 13 12  0  0  0  0            999 V2000
   -0.1393   -3.2326    0.0000 O   0  0  0  0  0  0  0  0  0  0  0  0
   -0.1393   -2.4076    0.0000 C   0  0  0  0  0  0  0  0  0  0  0  0
   -0.8537   -1.9951    0.0000 C   0  0  0  0  0  0  0  0  0  0  0  0
   -1.5682   -2.4076    0.0000 C   0  0  0  0  0  0  0  0  0  0  0  0
    0.5752   -1.9951    0.0000 O   0  0  0  0  0  0  0  0  0  0  0  0
    1.2897   -2.4076    0.0000 C   0  0  0  0  0  0  0  0  0  0  0  0
    2.0042   -1.9951    0.0000 C   0  0  0  0  0  0  0  0  0  0  0  0
    2.0042   -1.1701    0.0000 C   0  0  0  0  0  0  0  0  0  0  0  0
    2.7186   -0.7576    0.0000 C   0  0  0  0  0  0  0  0  0  0  0  0
    2.7186   -2.4076    0.0000 C   0  0  0  0  0  0  0  0  0  0  0  0
    3.4331   -1.9951    0.0000 C   0  0  0  0  0  0  0  0  0  0  0  0
    4.1476   -2.4076    0.0000 C   0  0  0  0  0  0  0  0  0  0  0  0
    4.8620   -1.9951    0.0000 C   0  0  0  0  0  0  0  0  0  0  0  0
  1  2  2  0  0  0  0
  2  3  1  0  0  0  0
  3  4  2  0  0  0  0
  2  5  1  0  0  0  0
  5  6  1  0  0  0  0
  6  7  1  0  0  0  0
  7  8  1  0  0  0  0
  8  9  1  0  0  0  0
  7 10  1  0  0  0  0
 10 11  1  0  0  0  0
 11 12  1  0  0  0  0
 12 13  1  0  0  0  0
M  END
> <ChemID>
100401

> <CAS>
103-11-7

> <Original_SMILES>
CCCCC(COC(=O)C=C)CC

> <preferred_name>
2-Ethylhexyl acrylate

> <dsstox_substance_id>
DTXSID9025297

> <dsstox_compound_id>
DTXCID405297

> <qc_level>
DSSTox_Low

> <Canonical_QSARr>
CCCCC(COC(=O)C=C)CC

> <InChI_Code_QSARr>
InChI=1S/C11H20O2/c1-4-7-8-10(5-2)9-13-11(12)6-3/h6,10H,3-5,7-9H2,1-2H3

> <InChI Key_QSARr>
GOXQRTZXKQZDDN-UHFFFAOYSA-N

> <Salt_Solvent>


> <Salt_Solvent_ID>
0

> <MPID>
100411

> <Tr_1_Tst_0>
0

> <Ready_Biodeg>
1.0

$$$$
Row393
  Mrv171c012251911052D          

 26 25  0  0  0  0            999 V2000
    2.7458   -3.9001    0.0000 C   0  0  0  0  0  0  0  0  0  0  0  0
    2.0313   -3.4876    0.0000 C   0  0  0  0  0  0  0  0  0  0  0  0
    2.0313   -2.6626    0.0000 C   0  0  0  0  0  0  0  0  0  0  0  0
    1.3169   -2.2501    0.0000 C   0  0  0  0  0  0  0  0  0  0  0  0
    0.6024   -2.6626    0.0000 C   0  0  0  0  0  0  0  0  0  0  0  0
   -0.1121   -2.2501    0.0000 C   0  0  0  0  0  0  0  0  0  0  0  0
   -0.8265   -2.6626    0.0000 C   0  0  0  0  0  0  0  0  0  0  0  0
    2.7458   -2.2501    0.0000 C   0  0  0  0  0  0  0  0  0  0  0  0
    3.4603   -2.6626    0.0000 O   0  0  0  0  0  0  0  0  0  0  0  0
    4.1748   -2.2501    0.0000 C   0  0  0  0  0  0  0  0  0  0  0  0
    4.8892   -2.6626    0.0000 C   0  0  0  0  0  0  0  0  0  0  0  0
    5.6037   -2.2501    0.0000 C   0  0  0  0  0  0  0  0  0  0  0  0
    6.3182   -2.6626    0.0000 C   0  0  0  0  0  0  0  0  0  0  0  0
    7.0326   -2.2501    0.0000 C   0  0  0  0  0  0  0  0  0  0  0  0
    7.7471   -2.6626    0.0000 C   0  0  0  0  0  0  0  0  0  0  0  0
    8.4616   -2.2501    0.0000 O   0  0  0  0  0  0  0  0  0  0  0  0
    9.1761   -2.6626    0.0000 C   0  0  0  0  0  0  0  0  0  0  0  0
    9.8905   -2.2501    0.0000 C   0  0  0  0  0  0  0  0  0  0  0  0
    9.8905   -1.4251    0.0000 C   0  0  0  0  0  0  0  0  0  0  0  0
   10.6050   -1.0126    0.0000 C   0  0  0  0  0  0  0  0  0  0  0  0
   10.6050   -2.6626    0.0000 C   0  0  0  0  0  0  0  0  0  0  0  0
   11.3195   -2.2501    0.0000 C   0  0  0  0  0  0  0  0  0  0  0  0
   12.0339   -2.6626    0.0000 C   0  0  0  0  0  0  0  0  0  0  0  0
   12.7484   -2.2501    0.0000 C   0  0  0  0  0  0  0  0  0  0  0  0
    7.7471   -3.4876    0.0000 O   0  0  0  0  0  0  0  0  0  0  0  0
    4.1748   -1.4251    0.0000 O   0  0  0  0  0  0  0  0  0  0  0  0
  1  2  1  0  0  0  0
  2  3  1  0  0  0  0
  3  4  1  0  0  0  0
  4  5  1  0  0  0  0
  5  6  1  0  0  0  0
  6  7  1  0  0  0  0
  3  8  1  0  0  0  0
  8  9  1  0  0  0  0
  9 10  1  0  0  0  0
 10 11  1  0  0  0  0
 11 12  1  0  0  0  0
 12 13  1  0  0  0  0
 13 14  1  0  0  0  0
 14 15  1  0  0  0  0
 15 16  1  0  0  0  0
 16 17  1  0  0  0  0
 17 18  1  0  0  0  0
 18 19  1  0  0  0  0
 19 20  1  0  0  0  0
 18 21  1  0  0  0  0
 21 22  1  0  0  0  0
 22 23  1  0  0  0  0
 23 24  1  0  0  0  0
 15 25  2  0  0  0  0
 10 26  2  0  0  0  0
M  END
> <ChemID>
100402

> <CAS>
103-23-1

> <Original_SMILES>
CCCCC(COC(=O)CCCCC(=O)OCC(CCCC)CC)CC

> <preferred_name>
Di(2-ethylhexyl) adipate

> <dsstox_substance_id>
DTXSID0020606

> <dsstox_compound_id>
DTXCID40606

> <qc_level>
DSSTox_High

> <Canonical_QSARr>
CCCCC(COC(=O)CCCCC(=O)OCC(CCCC)CC)CC

> <InChI_Code_QSARr>
InChI=1S/C22H42O4/c1-5-9-13-19(7-3)17-25-21(23)15-11-12-16-22(24)26-18-20(8-4)14-10-6-2/h19-20H,5-18H2,1-4H3

> <InChI Key_QSARr>
SAOKZLXYCUGLFA-UHFFFAOYSA-N

> <Salt_Solvent>


> <Salt_Solvent_ID>
0

> <MPID>
100412

> <Tr_1_Tst_0>
1

> <Ready_Biodeg>
1.0

$$$$
Row394
  Mrv171c012251911052D          

 14 15  0  0  0  0            999 V2000
    2.3218   -1.2779    0.0000 C   0  0  0  0  0  0  0  0  0  0  0  0
    2.3218   -2.1029    0.0000 C   0  0  0  0  0  0  0  0  0  0  0  0
    1.6073   -2.5154    0.0000 C   0  0  0  0  0  0  0  0  0  0  0  0
    1.6073   -3.3404    0.0000 C   0  0  0  0  0  0  0  0  0  0  0  0
    2.3218   -3.7529    0.0000 C   0  0  0  0  0  0  0  0  0  0  0  0
    3.0363   -3.3404    0.0000 C   0  0  0  0  0  0  0  0  0  0  0  0
    3.0363   -2.5154    0.0000 C   0  0  0  0  0  0  0  0  0  0  0  0
    3.0363   -0.8654    0.0000 C   0  0  0  0  0  0  0  0  0  0  0  0
    3.0363   -0.0404    0.0000 C   0  0  0  0  0  0  0  0  0  0  0  0
    3.7507    0.3721    0.0000 C   0  0  0  0  0  0  0  0  0  0  0  0
    3.7507    1.1971    0.0000 C   0  0  0  0  0  0  0  0  0  0  0  0
    3.0363    1.6096    0.0000 C   0  0  0  0  0  0  0  0  0  0  0  0
    2.3218    1.1971    0.0000 C   0  0  0  0  0  0  0  0  0  0  0  0
    2.3218    0.3721    0.0000 C   0  0  0  0  0  0  0  0  0  0  0  0
  1  2  1  0  0  0  0
  3  2  2  0  0  0  0
  4  3  1  0  0  0  0
  5  4  2  0  0  0  0
  6  5  1  0  0  0  0
  7  6  2  0  0  0  0
  2  7  1  0  0  0  0
  1  8  1  0  0  0  0
  8  9  1  0  0  0  0
 10  9  1  0  0  0  0
 11 10  2  0  0  0  0
 12 11  1  0  0  0  0
 13 12  2  0  0  0  0
 14 13  1  0  0  0  0
  9 14  2  0  0  0  0
M  END
> <ChemID>
100403

> <CAS>
103-29-7

> <Original_SMILES>
C(Cc1ccccc1)c1ccccc1

> <preferred_name>
Bibenzyl

> <dsstox_substance_id>
DTXSID8041668

> <dsstox_compound_id>
DTXCID6021668

> <qc_level>
DSSTox_Low

> <Canonical_QSARr>
C(CC1C=CC=CC=1)C1C=CC=CC=1

> <InChI_Code_QSARr>
InChI=1S/C14H14/c1-3-7-13(8-4-1)11-12-14-9-5-2-6-10-14/h1-10H,11-12H2

> <InChI Key_QSARr>
QWUWMCYKGHVNAV-UHFFFAOYSA-N

> <Salt_Solvent>


> <Salt_Solvent_ID>
0

> <MPID>
100413

> <Tr_1_Tst_0>
1

> <Ready_Biodeg>
1.0

$$$$
Row395
  Mrv171c012251911052D          

 14 15  0  0  0  0            999 V2000
    2.1434   -2.8875    0.0000 C   0  0  0  0  0  0  0  0  0  0  0  0
    2.1434   -3.7125    0.0000 C   0  0  0  0  0  0  0  0  0  0  0  0
    1.4289   -4.1250    0.0000 C   0  0  0  0  0  0  0  0  0  0  0  0
    0.7145   -3.7125    0.0000 C   0  0  0  0  0  0  0  0  0  0  0  0
    0.7145   -2.8875    0.0000 C   0  0  0  0  0  0  0  0  0  0  0  0
    1.4289   -2.4750    0.0000 C   0  0  0  0  0  0  0  0  0  0  0  0
    1.4289   -1.6500    0.0000 C   0  0  0  0  0  0  0  0  0  0  0  0
    0.7145   -1.2375    0.0000 C   0  0  0  0  0  0  0  0  0  0  0  0
    0.7145   -0.4125    0.0000 C   0  0  0  0  0  0  0  0  0  0  0  0
    0.0000    0.0000    0.0000 C   0  0  0  0  0  0  0  0  0  0  0  0
    0.0000    0.8250    0.0000 C   0  0  0  0  0  0  0  0  0  0  0  0
    0.7145    1.2375    0.0000 N   0  0  0  0  0  0  0  0  0  0  0  0
    1.4289    0.8250    0.0000 C   0  0  0  0  0  0  0  0  0  0  0  0
    1.4289    0.0000    0.0000 C   0  0  0  0  0  0  0  0  0  0  0  0
  1  2  2  0  0  0  0
  2  3  1  0  0  0  0
  3  4  2  0  0  0  0
  4  5  1  0  0  0  0
  5  6  2  0  0  0  0
  1  6  1  0  0  0  0
  7  6  1  4  0  0  0
  7  8  2  0  0  0  0
  8  9  1  0  0  0  0
  9 10  1  0  0  0  0
 10 11  2  0  0  0  0
 11 12  1  0  0  0  0
 12 13  2  0  0  0  0
 13 14  1  0  0  0  0
  9 14  2  0  0  0  0
M  END
> <ChemID>
100404

> <CAS>
103-31-1

> <Original_SMILES>
c1cc(cc[n]1)C=Cc1ccccc1

> <preferred_name>
4-Styrylpyridine

> <dsstox_substance_id>
DTXSID7046255

> <dsstox_compound_id>
DTXCID5026255

> <qc_level>
DSSTox_High

> <Canonical_QSARr>
C1=CC=CC=C1C=CC1C=CN=CC=1

> <InChI_Code_QSARr>
InChI=1S/C13H11N/c1-2-4-12(5-3-1)6-7-13-8-10-14-11-9-13/h1-11H

> <InChI Key_QSARr>
QKHRGPYNTXRMSL-UHFFFAOYSA-N

> <Salt_Solvent>


> <Salt_Solvent_ID>
0

> <MPID>
100414

> <Tr_1_Tst_0>
1

> <Ready_Biodeg>
1.0

$$$$
Row396
  Mrv171c012251911052D          

 14 15  0  0  0  0            999 V2000
    2.4492   -0.9191    0.0000 N   0  0  0  0  0  0  0  0  0  0  0  0
    2.4492   -1.7441    0.0000 C   0  0  0  0  0  0  0  0  0  0  0  0
    1.7347   -2.1566    0.0000 C   0  0  0  0  0  0  0  0  0  0  0  0
    1.7347   -2.9816    0.0000 C   0  0  0  0  0  0  0  0  0  0  0  0
    2.4492   -3.3941    0.0000 C   0  0  0  0  0  0  0  0  0  0  0  0
    3.1637   -2.9816    0.0000 C   0  0  0  0  0  0  0  0  0  0  0  0
    3.1637   -2.1566    0.0000 C   0  0  0  0  0  0  0  0  0  0  0  0
    3.1637   -0.5066    0.0000 N   0  0  0  0  0  0  0  0  0  0  0  0
    3.1637    0.3184    0.0000 C   0  0  0  0  0  0  0  0  0  0  0  0
    3.8782    0.7309    0.0000 C   0  0  0  0  0  0  0  0  0  0  0  0
    3.8782    1.5559    0.0000 C   0  0  0  0  0  0  0  0  0  0  0  0
    3.1637    1.9684    0.0000 C   0  0  0  0  0  0  0  0  0  0  0  0
    2.4492    1.5559    0.0000 C   0  0  0  0  0  0  0  0  0  0  0  0
    2.4492    0.7309    0.0000 C   0  0  0  0  0  0  0  0  0  0  0  0
  1  2  1  4  0  0  0
  3  2  1  0  0  0  0
  4  3  2  0  0  0  0
  5  4  1  0  0  0  0
  6  5  2  0  0  0  0
  7  6  1  0  0  0  0
  2  7  2  0  0  0  0
  1  8  2  0  0  0  0
  8  9  1  0  0  0  0
 10  9  1  0  0  0  0
 11 10  2  0  0  0  0
 12 11  1  0  0  0  0
 13 12  2  0  0  0  0
 14 13  1  0  0  0  0
  9 14  2  0  0  0  0
M  END
> <ChemID>
100405

> <CAS>
103-33-3

> <Original_SMILES>
c1ccccc1N=Nc1ccccc1

> <preferred_name>
Azobenzene

> <dsstox_substance_id>
DTXSID8020123

> <dsstox_compound_id>
DTXCID40123

> <qc_level>
DSSTox_Low

> <Canonical_QSARr>
C1=CC=CC=C1N=NC1C=CC=CC=1

> <InChI_Code_QSARr>
InChI=1S/C12H10N2/c1-3-7-11(8-4-1)13-14-12-9-5-2-6-10-12/h1-10H

> <InChI Key_QSARr>
DMLAVOWQYNRWNQ-UHFFFAOYSA-N

> <Salt_Solvent>


> <Salt_Solvent_ID>
0

> <MPID>
100415

> <Tr_1_Tst_0>
0

> <Ready_Biodeg>
0.0

$$$$
Row397
  Mrv171c012251911052D          

 11 10  0  0  0  0            999 V2000
    4.0253   -1.5085    0.0000 O   0  0  0  0  0  0  0  0  0  0  0  0
    3.3108   -1.9210    0.0000 C   0  0  0  0  0  0  0  0  0  0  0  0
    2.5964   -1.5085    0.0000 C   0  0  0  0  0  0  0  0  0  0  0  0
    2.5964   -0.6835    0.0000 C   0  0  0  0  0  0  0  0  0  0  0  0
    1.8819   -0.2710    0.0000 C   0  0  0  0  0  0  0  0  0  0  0  0
    1.8819   -1.9210    0.0000 C   0  0  0  0  0  0  0  0  0  0  0  0
    1.1674   -1.5085    0.0000 C   0  0  0  0  0  0  0  0  0  0  0  0
    0.4530   -1.9210    0.0000 C   0  0  0  0  0  0  0  0  0  0  0  0
   -0.2615   -1.5085    0.0000 C   0  0  0  0  0  0  0  0  0  0  0  0
    4.7398   -1.9210    0.0000 C   0  0  0  0  0  0  0  0  0  0  0  0
    5.4543   -1.5085    0.0000 C   0  0  0  0  0  0  0  0  0  0  0  0
  1  2  1  0  0  0  0
  2  3  1  0  0  0  0
  3  4  1  0  0  0  0
  4  5  1  0  0  0  0
  3  6  1  0  0  0  0
  6  7  1  0  0  0  0
  7  8  1  0  0  0  0
  8  9  1  0  0  0  0
  1 10  1  0  0  0  0
 10 11  2  0  0  0  0
M  END
> <ChemID>
100406

> <CAS>
103-44-6

> <Original_SMILES>
CCCCC(COC=C)CC

> <preferred_name>


> <dsstox_substance_id>
DTXSID20870444

> <dsstox_compound_id>
DTXCID40818166

> <qc_level>


> <Canonical_QSARr>
CCCCC(COC=C)CC

> <InChI_Code_QSARr>
InChI=1S/C10H20O/c1-4-7-8-10(5-2)9-11-6-3/h6,10H,3-5,7-9H2,1-2H3

> <InChI Key_QSARr>
DSSAWHFZNWVJEC-UHFFFAOYSA-N

> <Salt_Solvent>


> <Salt_Solvent_ID>
0

> <MPID>
100416

> <Tr_1_Tst_0>
1

> <Ready_Biodeg>
0.0

$$$$
Row398
  Mrv171c012251911052D          

 15 16  0  0  0  0            999 V2000
    3.0977   -0.8267    0.0000 O   0  0  0  0  0  0  0  0  0  0  0  0
    3.8121   -1.2392    0.0000 C   0  0  0  0  0  0  0  0  0  0  0  0
    3.8121   -2.0642    0.0000 C   0  0  0  0  0  0  0  0  0  0  0  0
    3.0977   -2.4767    0.0000 C   0  0  0  0  0  0  0  0  0  0  0  0
    3.0977   -3.3017    0.0000 C   0  0  0  0  0  0  0  0  0  0  0  0
    3.8121   -3.7142    0.0000 C   0  0  0  0  0  0  0  0  0  0  0  0
    4.5266   -3.3017    0.0000 C   0  0  0  0  0  0  0  0  0  0  0  0
    4.5266   -2.4767    0.0000 C   0  0  0  0  0  0  0  0  0  0  0  0
    3.0977   -0.0017    0.0000 C   0  0  0  0  0  0  0  0  0  0  0  0
    2.3832    0.4108    0.0000 C   0  0  0  0  0  0  0  0  0  0  0  0
    2.3832    1.2358    0.0000 C   0  0  0  0  0  0  0  0  0  0  0  0
    1.6687    1.6483    0.0000 C   0  0  0  0  0  0  0  0  0  0  0  0
    0.9543    1.2358    0.0000 C   0  0  0  0  0  0  0  0  0  0  0  0
    0.9543    0.4108    0.0000 C   0  0  0  0  0  0  0  0  0  0  0  0
    1.6687   -0.0017    0.0000 C   0  0  0  0  0  0  0  0  0  0  0  0
  1  2  1  0  0  0  0
  2  3  1  0  0  0  0
  4  3  1  0  0  0  0
  5  4  2  0  0  0  0
  6  5  1  0  0  0  0
  7  6  2  0  0  0  0
  8  7  1  0  0  0  0
  3  8  2  0  0  0  0
  1  9  1  0  0  0  0
  9 10  1  0  0  0  0
 11 10  1  0  0  0  0
 12 11  2  0  0  0  0
 13 12  1  0  0  0  0
 14 13  2  0  0  0  0
 15 14  1  0  0  0  0
 10 15  2  0  0  0  0
M  END
> <ChemID>
100407

> <CAS>
103-50-4

> <Original_SMILES>
C(OCc1ccccc1)c1ccccc1

> <preferred_name>
Dibenzyl ether

> <dsstox_substance_id>
DTXSID5025819

> <dsstox_compound_id>
DTXCID005819

> <qc_level>
DSSTox_Low

> <Canonical_QSARr>
C(OCC1C=CC=CC=1)C1C=CC=CC=1

> <InChI_Code_QSARr>
InChI=1S/C14H14O/c1-3-7-13(8-4-1)11-15-12-14-9-5-2-6-10-14/h1-10H,11-12H2

> <InChI Key_QSARr>
MHDVGSVTJDSBDK-UHFFFAOYSA-N

> <Salt_Solvent>


> <Salt_Solvent_ID>
0

> <MPID>
100417

> <Tr_1_Tst_0>
1

> <Ready_Biodeg>
0.0

$$$$
Row399
  Mrv171c012251911052D          

  9  9  0  0  0  0            999 V2000
    0.0000    3.3000    0.0000 Br  0  0  0  0  0  0  0  0  0  0  0  0
    0.0000    2.4750    0.0000 C   0  0  0  0  0  0  0  0  0  0  0  0
    0.7145    2.0625    0.0000 C   0  0  0  0  0  0  0  0  0  0  0  0
    0.7145    1.2375    0.0000 C   0  0  0  0  0  0  0  0  0  0  0  0
    1.4289    0.8250    0.0000 C   0  0  0  0  0  0  0  0  0  0  0  0
    1.4289   -0.0000    0.0000 C   0  0  0  0  0  0  0  0  0  0  0  0
    0.7145   -0.4125    0.0000 C   0  0  0  0  0  0  0  0  0  0  0  0
    0.0000    0.0000    0.0000 C   0  0  0  0  0  0  0  0  0  0  0  0
    0.0000    0.8250    0.0000 C   0  0  0  0  0  0  0  0  0  0  0  0
  2  1  1  4  0  0  0
  2  3  2  0  0  0  0
  3  4  1  0  0  0  0
  4  5  1  0  0  0  0
  5  6  2  0  0  0  0
  6  7  1  0  0  0  0
  7  8  2  0  0  0  0
  8  9  1  0  0  0  0
  4  9  2  0  0  0  0
M  END
> <ChemID>
100408

> <CAS>
1335-06-4

> <Original_SMILES>
BrC=Cc1ccccc1

> <preferred_name>
Benzene, bromoethenyl-

> <dsstox_substance_id>
DTXSID8061680

> <dsstox_compound_id>
DTXCID5034149

> <qc_level>
Public_High

> <Canonical_QSARr>
BrC=CC1C=CC=CC=1

> <InChI_Code_QSARr>
InChI=1S/C8H7Br/c9-7-6-8-4-2-1-3-5-8/h1-7H

> <InChI Key_QSARr>
YMOONIIMQBGTDU-UHFFFAOYSA-N

> <Salt_Solvent>


> <Salt_Solvent_ID>
0

> <MPID>
100418

> <Tr_1_Tst_0>
1

> <Ready_Biodeg>
0.0

$$$$
Row400
  Mrv171c012251911052D          

  9  9  0  0  0  0            999 V2000
    1.2747   -0.5068    0.0000 C   0  0  0  0  0  0  0  0  0  0  0  0
    1.2747    0.3182    0.0000 C   0  0  0  0  0  0  0  0  0  0  0  0
    1.9892    0.7307    0.0000 C   0  0  0  0  0  0  0  0  0  0  0  0
    1.9892    1.5557    0.0000 C   0  0  0  0  0  0  0  0  0  0  0  0
    0.5603   -0.9193    0.0000 C   0  0  0  0  0  0  0  0  0  0  0  0
    0.5603   -1.7443    0.0000 C   0  0  0  0  0  0  0  0  0  0  0  0
    1.2747   -2.1568    0.0000 C   0  0  0  0  0  0  0  0  0  0  0  0
    1.9892   -1.7443    0.0000 C   0  0  0  0  0  0  0  0  0  0  0  0
    1.9892   -0.9193    0.0000 C   0  0  0  0  0  0  0  0  0  0  0  0
  1  2  1  0  0  0  0
  2  3  1  0  0  0  0
  3  4  1  0  0  0  0
  5  1  2  0  0  0  0
  6  5  1  0  0  0  0
  7  6  2  0  0  0  0
  8  7  1  0  0  0  0
  9  8  2  0  0  0  0
  1  9  1  0  0  0  0
M  END
> <ChemID>
100409

> <CAS>
103-65-1

> <Original_SMILES>
CCCc1ccccc1

> <preferred_name>
Propylbenzene

> <dsstox_substance_id>
DTXSID3042219

> <dsstox_compound_id>
DTXCID1022219

> <qc_level>
DSSTox_Low

> <Canonical_QSARr>
CCCC1C=CC=CC=1

> <InChI_Code_QSARr>
InChI=1S/C9H12/c1-2-6-9-7-4-3-5-8-9/h3-5,7-8H,2,6H2,1H3

> <InChI Key_QSARr>
ODLMAHJVESYWTB-UHFFFAOYSA-N

> <Salt_Solvent>


> <Salt_Solvent_ID>
0

> <MPID>
100419

> <Tr_1_Tst_0>
0

> <Ready_Biodeg>
1.0

$$$$
Row401
  Mrv171c012251911052D          

  9  9  0  0  0  0            999 V2000
    1.9978    0.3597    0.0000 N   0  0  0  0  0  0  0  0  0  0  0  0
    2.7123    0.7722    0.0000 C   0  0  0  0  0  0  0  0  0  0  0  0
    2.7123    1.5972    0.0000 C   0  0  0  0  0  0  0  0  0  0  0  0
    1.9978   -0.4653    0.0000 C   0  0  0  0  0  0  0  0  0  0  0  0
    1.2833   -0.8778    0.0000 C   0  0  0  0  0  0  0  0  0  0  0  0
    1.2833   -1.7028    0.0000 C   0  0  0  0  0  0  0  0  0  0  0  0
    1.9978   -2.1153    0.0000 C   0  0  0  0  0  0  0  0  0  0  0  0
    2.7123   -1.7028    0.0000 C   0  0  0  0  0  0  0  0  0  0  0  0
    2.7123   -0.8778    0.0000 C   0  0  0  0  0  0  0  0  0  0  0  0
  1  2  1  0  0  0  0
  2  3  1  0  0  0  0
  1  4  1  0  0  0  0
  5  4  1  0  0  0  0
  6  5  2  0  0  0  0
  7  6  1  0  0  0  0
  8  7  2  0  0  0  0
  9  8  1  0  0  0  0
  4  9  2  0  0  0  0
M  END
> <ChemID>
100410

> <CAS>
103-69-5

> <Original_SMILES>
CCNc1ccccc1

> <preferred_name>
N-Ethylaniline

> <dsstox_substance_id>
DTXSID1025271

> <dsstox_compound_id>
DTXCID405271

> <qc_level>
DSSTox_Low

> <Canonical_QSARr>
CCNC1C=CC=CC=1

> <InChI_Code_QSARr>
InChI=1S/C8H11N/c1-2-9-8-6-4-3-5-7-8/h3-7,9H,2H2,1H3

> <InChI Key_QSARr>
OJGMBLNIHDZDGS-UHFFFAOYSA-N

> <Salt_Solvent>


> <Salt_Solvent_ID>
0

> <MPID>
100420

> <Tr_1_Tst_0>
1

> <Ready_Biodeg>
0.0

$$$$
Row402
  Mrv171c012251911052D          

  9  9  0  0  0  0            999 V2000
    0.7145    1.2375    0.0000 C   0  0  0  0  0  0  0  0  0  0  0  0
    0.7145    2.0625    0.0000 O   0  0  0  0  0  0  0  0  0  0  0  0
    1.4289    2.4750    0.0000 C   0  0  0  0  0  0  0  0  0  0  0  0
    1.4289    3.3000    0.0000 C   0  0  0  0  0  0  0  0  0  0  0  0
   -0.0000    0.8250    0.0000 C   0  0  0  0  0  0  0  0  0  0  0  0
   -0.0000   -0.0000    0.0000 C   0  0  0  0  0  0  0  0  0  0  0  0
    0.7145   -0.4125    0.0000 C   0  0  0  0  0  0  0  0  0  0  0  0
    1.4289    0.0000    0.0000 C   0  0  0  0  0  0  0  0  0  0  0  0
    1.4289    0.8250    0.0000 C   0  0  0  0  0  0  0  0  0  0  0  0
  1  2  1  0  0  0  0
  2  3  1  0  0  0  0
  3  4  1  0  0  0  0
  5  1  1  0  0  0  0
  6  5  2  0  0  0  0
  7  6  1  0  0  0  0
  8  7  2  0  0  0  0
  9  8  1  0  0  0  0
  1  9  2  0  0  0  0
M  END
> <ChemID>
100411

> <CAS>
103-73-1

> <Original_SMILES>
CCOc1ccccc1

> <preferred_name>
Benzene, ethoxy-

> <dsstox_substance_id>
DTXSID7059278

> <dsstox_compound_id>
DTXCID7032767

> <qc_level>
Public_High

> <Canonical_QSARr>
CCOC1C=CC=CC=1

> <InChI_Code_QSARr>
InChI=1S/C8H10O/c1-2-9-8-6-4-3-5-7-8/h3-7H,2H2,1H3

> <InChI Key_QSARr>
DLRJIFUOBPOJNS-UHFFFAOYSA-N

> <Salt_Solvent>


> <Salt_Solvent_ID>
0

> <MPID>
100421

> <Tr_1_Tst_0>
1

> <Ready_Biodeg>
1.0

$$$$
Row403
  Mrv171c012251911052D          

 10 10  0  0  0  0            999 V2000
    2.4299    1.0708    0.0000 O   0  0  0  0  0  0  0  0  0  0  0  0
    2.4299    0.2458    0.0000 C   0  0  0  0  0  0  0  0  0  0  0  0
    3.1443   -0.1667    0.0000 O   0  0  0  0  0  0  0  0  0  0  0  0
    1.7154   -0.1667    0.0000 C   0  0  0  0  0  0  0  0  0  0  0  0
    1.7154   -0.9917    0.0000 C   0  0  0  0  0  0  0  0  0  0  0  0
    1.0009   -1.4042    0.0000 C   0  0  0  0  0  0  0  0  0  0  0  0
    1.0009   -2.2292    0.0000 C   0  0  0  0  0  0  0  0  0  0  0  0
    1.7154   -2.6417    0.0000 C   0  0  0  0  0  0  0  0  0  0  0  0
    2.4299   -2.2292    0.0000 C   0  0  0  0  0  0  0  0  0  0  0  0
    2.4299   -1.4042    0.0000 C   0  0  0  0  0  0  0  0  0  0  0  0
  1  2  1  0  0  0  0
  2  3  2  0  0  0  0
  2  4  1  0  0  0  0
  4  5  1  0  0  0  0
  6  5  1  0  0  0  0
  7  6  2  0  0  0  0
  8  7  1  0  0  0  0
  9  8  2  0  0  0  0
 10  9  1  0  0  0  0
  5 10  2  0  0  0  0
M  END
> <ChemID>
100412

> <CAS>
103-82-2

> <Original_SMILES>
OC(=O)Cc1ccccc1

> <preferred_name>
Phenylacetic acid

> <dsstox_substance_id>
DTXSID2021656

> <dsstox_compound_id>
DTXCID201656

> <qc_level>
DSSTox_Low

> <Canonical_QSARr>
OC(=O)CC1C=CC=CC=1

> <InChI_Code_QSARr>
InChI=1S/C8H8O2/c9-8(10)6-7-4-2-1-3-5-7/h1-5H,6H2,(H,9,10)

> <InChI Key_QSARr>
WLJVXDMOQOGPHL-UHFFFAOYSA-N

> <Salt_Solvent>


> <Salt_Solvent_ID>
0

> <MPID>
100422

> <Tr_1_Tst_0>
1

> <Ready_Biodeg>
1.0

$$$$
Row404
  Mrv171c012251911052D          

 10 10  0  0  0  0            999 V2000
    2.4287    1.0714    0.0000 C   0  0  0  0  0  0  0  0  0  0  0  0
    2.4287    0.2464    0.0000 N   0  0  0  0  0  0  0  0  0  0  0  0
    1.7142   -0.1661    0.0000 C   0  0  0  0  0  0  0  0  0  0  0  0
    1.7142   -0.9911    0.0000 C   0  0  0  0  0  0  0  0  0  0  0  0
    0.9997   -1.4036    0.0000 C   0  0  0  0  0  0  0  0  0  0  0  0
    0.9997   -2.2286    0.0000 C   0  0  0  0  0  0  0  0  0  0  0  0
    1.7142   -2.6411    0.0000 C   0  0  0  0  0  0  0  0  0  0  0  0
    2.4287   -2.2286    0.0000 C   0  0  0  0  0  0  0  0  0  0  0  0
    2.4287   -1.4036    0.0000 C   0  0  0  0  0  0  0  0  0  0  0  0
    3.1432   -0.1661    0.0000 C   0  0  0  0  0  0  0  0  0  0  0  0
  1  2  1  0  0  0  0
  2  3  1  0  0  0  0
  3  4  1  0  0  0  0
  5  4  1  0  0  0  0
  6  5  2  0  0  0  0
  7  6  1  0  0  0  0
  8  7  2  0  0  0  0
  9  8  1  0  0  0  0
  4  9  2  0  0  0  0
  2 10  1  0  0  0  0
M  END
> <ChemID>
100413

> <CAS>
103-83-3

> <Original_SMILES>
CN(C)Cc1ccccc1

> <preferred_name>
N,N-Dimethylbenzylamine

> <dsstox_substance_id>
DTXSID8021854

> <dsstox_compound_id>
DTXCID801854

> <qc_level>
DSSTox_Low

> <Canonical_QSARr>
CN(C)CC1C=CC=CC=1

> <InChI_Code_QSARr>
InChI=1S/C9H13N/c1-10(2)8-9-6-4-3-5-7-9/h3-7H,8H2,1-2H3

> <InChI Key_QSARr>
XXBDWLFCJWSEKW-UHFFFAOYSA-N

> <Salt_Solvent>


> <Salt_Solvent_ID>
0

> <MPID>
100423

> <Tr_1_Tst_0>
0

> <Ready_Biodeg>
0.0

$$$$
Row405
  Mrv171c012251911052D          

 10 10  0  0  0  0            999 V2000
    2.5717   -1.4036    0.0000 C   0  0  0  0  0  0  0  0  0  0  0  0
    1.8572   -0.9911    0.0000 C   0  0  0  0  0  0  0  0  0  0  0  0
    1.8572   -0.1661    0.0000 N   0  0  0  0  0  0  0  0  0  0  0  0
    1.1428    0.2464    0.0000 C   0  0  0  0  0  0  0  0  0  0  0  0
    1.1428    1.0714    0.0000 O   0  0  0  0  0  0  0  0  0  0  0  0
    0.4283   -0.1661    0.0000 C   0  0  0  0  0  0  0  0  0  0  0  0
    1.1428   -1.4036    0.0000 C   0  0  0  0  0  0  0  0  0  0  0  0
    1.1428   -2.2286    0.0000 C   0  0  0  0  0  0  0  0  0  0  0  0
    1.8572   -2.6411    0.0000 C   0  0  0  0  0  0  0  0  0  0  0  0
    2.5717   -2.2286    0.0000 C   0  0  0  0  0  0  0  0  0  0  0  0
  2  1  1  0  0  0  0
  2  3  1  0  0  0  0
  3  4  1  0  0  0  0
  4  5  2  0  0  0  0
  4  6  1  0  0  0  0
  7  2  2  0  0  0  0
  8  7  1  0  0  0  0
  9  8  2  0  0  0  0
 10  9  1  0  0  0  0
  1 10  2  0  0  0  0
M  END
> <ChemID>
100414

> <CAS>
103-84-4

> <Original_SMILES>
CC(=O)Nc1ccccc1

> <preferred_name>
Acetanilide

> <dsstox_substance_id>
DTXSID2022543

> <dsstox_compound_id>
DTXCID602543

> <qc_level>
DSSTox_Low

> <Canonical_QSARr>
CC(=O)NC1C=CC=CC=1

> <InChI_Code_QSARr>
InChI=1S/C8H9NO/c1-7(10)9-8-5-3-2-4-6-8/h2-6H,1H3,(H,9,10)

> <InChI Key_QSARr>
FZERHIULMFGESH-UHFFFAOYSA-N

> <Salt_Solvent>


> <Salt_Solvent_ID>
0

> <MPID>
100424

> <Tr_1_Tst_0>
1

> <Ready_Biodeg>
1.0

$$$$
Row406
  Mrv171c012251911052D          

 11 11  0  0  0  0            999 V2000
    1.6185   -2.2199    0.0000 C   0  0  0  0  0  0  0  0  0  0  0  0
    1.6185   -3.0449    0.0000 C   0  0  0  0  0  0  0  0  0  0  0  0
    0.9041   -1.8074    0.0000 O   0  0  0  0  0  0  0  0  0  0  0  0
    2.3330   -1.8074    0.0000 N   0  0  0  0  0  0  0  0  0  0  0  0
    2.3330   -0.9824    0.0000 C   0  0  0  0  0  0  0  0  0  0  0  0
    3.0475   -0.5699    0.0000 C   0  0  0  0  0  0  0  0  0  0  0  0
    3.0475    0.2551    0.0000 C   0  0  0  0  0  0  0  0  0  0  0  0
    2.3330    0.6676    0.0000 C   0  0  0  0  0  0  0  0  0  0  0  0
    2.3330    1.4926    0.0000 O   0  0  0  0  0  0  0  0  0  0  0  0
    1.6185    0.2551    0.0000 C   0  0  0  0  0  0  0  0  0  0  0  0
    1.6185   -0.5699    0.0000 C   0  0  0  0  0  0  0  0  0  0  0  0
  1  2  1  0  0  0  0
  1  3  2  0  0  0  0
  1  4  1  0  0  0  0
  4  5  1  0  0  0  0
  6  5  1  0  0  0  0
  7  6  2  0  0  0  0
  8  7  1  0  0  0  0
  8  9  1  0  0  0  0
 10  8  2  0  0  0  0
 11 10  1  0  0  0  0
  5 11  2  0  0  0  0
M  END
> <ChemID>
100415

> <CAS>
103-90-2

> <Original_SMILES>
CC(=O)Nc1ccc(O)cc1

> <preferred_name>
Acetaminophen

> <dsstox_substance_id>
DTXSID2020006

> <dsstox_compound_id>
DTXCID606

> <qc_level>
DSSTox_Low

> <Canonical_QSARr>
CC(=O)NC1C=CC(O)=CC=1

> <InChI_Code_QSARr>
InChI=1S/C8H9NO2/c1-6(10)9-7-2-4-8(11)5-3-7/h2-5,11H,1H3,(H,9,10)

> <InChI Key_QSARr>
RZVAJINKPMORJF-UHFFFAOYSA-N

> <Salt_Solvent>


> <Salt_Solvent_ID>
0

> <MPID>
100425

> <Tr_1_Tst_0>
1

> <Ready_Biodeg>
1.0

$$$$
Row407
  Mrv171c012251911052D          

 11 11  0  0  0  0            999 V2000
    2.1766   -1.1250    0.0000 C   0  0  0  0  0  0  0  0  0  0  0  0
    2.1766   -1.9500    0.0000 S   0  0  0  0  0  0  0  0  0  0  0  0
    2.1766   -2.7750    0.0000 O   0  0  0  0  0  0  0  0  0  0  0  0
    3.0016   -1.9500    0.0000 O   0  0  0  0  0  0  0  0  0  0  0  0
    1.3516   -1.9500    0.0000 O   0  0  0  0  0  0  0  0  0  0  0  0
    2.8911   -0.7125    0.0000 C   0  0  0  0  0  0  0  0  0  0  0  0
    2.8911    0.1125    0.0000 C   0  0  0  0  0  0  0  0  0  0  0  0
    2.1766    0.5250    0.0000 C   0  0  0  0  0  0  0  0  0  0  0  0
    2.1766    1.3500    0.0000 C   0  0  0  0  0  0  0  0  0  0  0  0
    1.4621    0.1125    0.0000 C   0  0  0  0  0  0  0  0  0  0  0  0
    1.4621   -0.7125    0.0000 C   0  0  0  0  0  0  0  0  0  0  0  0
  1  2  1  0  0  0  0
  2  3  2  0  0  0  0
  2  4  1  0  0  0  0
  2  5  2  0  0  0  0
  6  1  1  0  0  0  0
  7  6  2  0  0  0  0
  8  7  1  0  0  0  0
  8  9  1  0  0  0  0
 10  8  2  0  0  0  0
 11 10  1  0  0  0  0
  1 11  2  0  0  0  0
M  END
> <ChemID>
100416

> <CAS>
104-15-4

> <Original_SMILES>
Cc1ccc(cc1)S(O)(=O)=O

> <preferred_name>
4-Methylbenzenesulfonic acid

> <dsstox_substance_id>
DTXSID0026701

> <dsstox_compound_id>
DTXCID406701

> <qc_level>
DSSTox_High

> <Canonical_QSARr>
CC1=CC=C(C=C1)S(O)(=O)=O

> <InChI_Code_QSARr>
InChI=1S/C7H8O3S/c1-6-2-4-7(5-3-6)11(8,9)10/h2-5H,1H3,(H,8,9,10)

> <InChI Key_QSARr>
JOXIMZWYDAKGHI-UHFFFAOYSA-N

> <Salt_Solvent>


> <Salt_Solvent_ID>
0

> <MPID>
100426

> <Tr_1_Tst_0>
1

> <Ready_Biodeg>
1.0

$$$$
Row408
  Mrv171c012251911052D          

 19 19  0  0  0  0            999 V2000
    0.4195   -0.6730    0.0000 N   0  0  0  0  0  0  0  0  0  0  0  0
    1.1340   -1.0855    0.0000 C   0  0  0  0  0  0  0  0  0  0  0  0
    1.1340   -1.9105    0.0000 C   0  0  0  0  0  0  0  0  0  0  0  0
    1.8485   -2.3230    0.0000 C   0  0  0  0  0  0  0  0  0  0  0  0
    2.5629   -1.9105    0.0000 C   0  0  0  0  0  0  0  0  0  0  0  0
    3.2774   -2.3230    0.0000 C   0  0  0  0  0  0  0  0  0  0  0  0
    3.9919   -1.9105    0.0000 C   0  0  0  0  0  0  0  0  0  0  0  0
    4.7064   -2.3230    0.0000 C   0  0  0  0  0  0  0  0  0  0  0  0
    5.4208   -1.9105    0.0000 C   0  0  0  0  0  0  0  0  0  0  0  0
    6.1353   -2.3230    0.0000 C   0  0  0  0  0  0  0  0  0  0  0  0
    6.8498   -1.9105    0.0000 C   0  0  0  0  0  0  0  0  0  0  0  0
    7.5642   -2.3230    0.0000 C   0  0  0  0  0  0  0  0  0  0  0  0
    8.2787   -1.9105    0.0000 C   0  0  0  0  0  0  0  0  0  0  0  0
    8.9932   -2.3230    0.0000 C   0  0  0  0  0  0  0  0  0  0  0  0
    9.7077   -1.9105    0.0000 C   0  0  0  0  0  0  0  0  0  0  0  0
   10.4221   -2.3230    0.0000 C   0  0  0  0  0  0  0  0  0  0  0  0
   11.1366   -1.9105    0.0000 C   0  0  0  0  0  0  0  0  0  0  0  0
    2.5629   -1.0855    0.0000 C   0  0  0  0  0  0  0  0  0  0  0  0
    1.8485   -0.6730    0.0000 C   0  0  0  0  0  0  0  0  0  0  0  0
  1  2  1  0  0  0  0
  3  2  1  0  0  0  0
  4  3  2  0  0  0  0
  5  4  1  0  0  0  0
  5  6  1  0  0  0  0
  6  7  1  0  0  0  0
  7  8  1  0  0  0  0
  8  9  1  0  0  0  0
  9 10  1  0  0  0  0
 10 11  1  0  0  0  0
 11 12  1  0  0  0  0
 12 13  1  0  0  0  0
 13 14  1  0  0  0  0
 14 15  1  0  0  0  0
 15 16  1  0  0  0  0
 16 17  1  0  0  0  0
 18  5  2  0  0  0  0
 19 18  1  0  0  0  0
  2 19  2  0  0  0  0
M  END
> <ChemID>
100417

> <CAS>
104-42-7

> <Original_SMILES>
CCCCCCCCCCCCc1ccc(N)cc1

> <preferred_name>
4-Dodecylaniline

> <dsstox_substance_id>
DTXSID8021858

> <dsstox_compound_id>
DTXCID401858

> <qc_level>
DSSTox_Low

> <Canonical_QSARr>
CCCCCCCCCCCCC1C=CC(N)=CC=1

> <InChI_Code_QSARr>
InChI=1S/C18H31N/c1-2-3-4-5-6-7-8-9-10-11-12-17-13-15-18(19)16-14-17/h13-16H,2-12,19H2,1H3

> <InChI Key_QSARr>
KLPPPIIIEMUEGP-UHFFFAOYSA-N

> <Salt_Solvent>


> <Salt_Solvent_ID>
0

> <MPID>
100427

> <Tr_1_Tst_0>
0

> <Ready_Biodeg>
1.0

$$$$
Row409
  Mrv171c012251911052D          

 10 10  0  0  0  0            999 V2000
    2.8556   -1.2371    0.0000 C   0  0  0  0  0  0  0  0  0  0  0  0
    2.1412   -1.6496    0.0000 C   0  0  0  0  0  0  0  0  0  0  0  0
    2.1412   -2.4746    0.0000 C   0  0  0  0  0  0  0  0  0  0  0  0
    2.8556   -2.8871    0.0000 C   0  0  0  0  0  0  0  0  0  0  0  0
    3.5701   -2.4746    0.0000 C   0  0  0  0  0  0  0  0  0  0  0  0
    3.5701   -1.6496    0.0000 C   0  0  0  0  0  0  0  0  0  0  0  0
    2.8556   -0.4121    0.0000 C   0  0  0  0  0  0  0  0  0  0  0  0
    2.1412    0.0004    0.0000 C   0  0  0  0  0  0  0  0  0  0  0  0
    2.1412    0.8254    0.0000 C   0  0  0  0  0  0  0  0  0  0  0  0
    1.4267    1.2379    0.0000 C   0  0  0  0  0  0  0  0  0  0  0  0
  2  1  2  0  0  0  0
  3  2  1  0  0  0  0
  4  3  2  0  0  0  0
  5  4  1  0  0  0  0
  6  5  2  0  0  0  0
  1  6  1  0  0  0  0
  1  7  1  0  0  0  0
  7  8  1  0  0  0  0
  8  9  1  0  0  0  0
  9 10  1  0  0  0  0
M  END
> <ChemID>
100418

> <CAS>
104-51-8

> <Original_SMILES>
CCCCc1ccccc1

> <preferred_name>
Butylbenzene

> <dsstox_substance_id>
DTXSID6022472

> <dsstox_compound_id>
DTXCID902472

> <qc_level>
DSSTox_Low

> <Canonical_QSARr>
CCCCC1C=CC=CC=1

> <InChI_Code_QSARr>
InChI=1S/C10H14/c1-2-3-7-10-8-5-4-6-9-10/h4-6,8-9H,2-3,7H2,1H3

> <InChI Key_QSARr>
OCKPCBLVNKHBMX-UHFFFAOYSA-N

> <Salt_Solvent>


> <Salt_Solvent_ID>
0

> <MPID>
100428

> <Tr_1_Tst_0>
1

> <Ready_Biodeg>
0.0

$$$$
Row410
  Mrv171c012251911052D          

 10 10  0  0  0  0            999 V2000
   -0.7145    3.7125    0.0000 O   0  0  0  0  0  0  0  0  0  0  0  0
    0.0000    3.3000    0.0000 C   0  0  0  0  0  0  0  0  0  0  0  0
    0.0000    2.4750    0.0000 C   0  0  0  0  0  0  0  0  0  0  0  0
    0.7145    2.0625    0.0000 C   0  0  0  0  0  0  0  0  0  0  0  0
    0.7145    1.2375    0.0000 C   0  0  0  0  0  0  0  0  0  0  0  0
    1.4289    0.8250    0.0000 C   0  0  0  0  0  0  0  0  0  0  0  0
    1.4289   -0.0000    0.0000 C   0  0  0  0  0  0  0  0  0  0  0  0
    0.7145   -0.4125    0.0000 C   0  0  0  0  0  0  0  0  0  0  0  0
    0.0000    0.0000    0.0000 C   0  0  0  0  0  0  0  0  0  0  0  0
    0.0000    0.8250    0.0000 C   0  0  0  0  0  0  0  0  0  0  0  0
  1  2  1  0  0  0  0
  3  2  1  4  0  0  0
  3  4  2  0  0  0  0
  4  5  1  0  0  0  0
  5  6  1  0  0  0  0
  6  7  2  0  0  0  0
  7  8  1  0  0  0  0
  8  9  2  0  0  0  0
  9 10  1  0  0  0  0
  5 10  2  0  0  0  0
M  END
> <ChemID>
100419

> <CAS>
104-54-1

> <Original_SMILES>
OCC=Cc1ccccc1

> <preferred_name>
3-Phenyl-2-propen-1-ol

> <dsstox_substance_id>
DTXSID9041491

> <dsstox_compound_id>
DTXCID7021491

> <qc_level>
DSSTox_Low

> <Canonical_QSARr>
OCC=CC1C=CC=CC=1

> <InChI_Code_QSARr>
InChI=1S/C9H10O/c10-8-4-7-9-5-2-1-3-6-9/h1-7,10H,8H2

> <InChI Key_QSARr>
OOCCDEMITAIZTP-UHFFFAOYSA-N

> <Salt_Solvent>


> <Salt_Solvent_ID>
0

> <MPID>
100429

> <Tr_1_Tst_0>
1

> <Ready_Biodeg>
1.0

$$$$
Row411
  Mrv171c012251911052D          

  9  8  0  0  0  0            999 V2000
   -0.1355   -0.5526    0.0000 C   0  0  0  0  0  0  0  0  0  0  0  0
    0.2770   -1.2671    0.0000 C   0  0  0  0  0  0  0  0  0  0  0  0
    1.1020   -1.2671    0.0000 C   0  0  0  0  0  0  0  0  0  0  0  0
    1.5145   -1.9816    0.0000 C   0  0  0  0  0  0  0  0  0  0  0  0
    2.3395   -1.9816    0.0000 C   0  0  0  0  0  0  0  0  0  0  0  0
    2.7520   -2.6960    0.0000 C   0  0  0  0  0  0  0  0  0  0  0  0
    3.5770   -2.6960    0.0000 C   0  0  0  0  0  0  0  0  0  0  0  0
    2.7520   -1.2671    0.0000 C   0  0  0  0  0  0  0  0  0  0  0  0
    3.5770   -1.2671    0.0000 O   0  0  0  0  0  0  0  0  0  0  0  0
  1  2  1  0  0  0  0
  2  3  1  0  0  0  0
  3  4  1  0  0  0  0
  4  5  1  0  0  0  0
  5  6  1  0  0  0  0
  6  7  1  0  0  0  0
  5  8  1  0  0  0  0
  8  9  1  0  0  0  0
M  END
> <ChemID>
100420

> <CAS>
104-76-7

> <Original_SMILES>
CCCCC(CO)CC

> <preferred_name>
2-Ethyl-1-hexanol

> <dsstox_substance_id>
DTXSID5020605

> <dsstox_compound_id>
DTXCID10605

> <qc_level>
DSSTox_High

> <Canonical_QSARr>
CCCCC(CO)CC

> <InChI_Code_QSARr>
InChI=1S/C8H18O/c1-3-5-6-8(4-2)7-9/h8-9H,3-7H2,1-2H3

> <InChI Key_QSARr>
YIWUKEYIRIRTPP-UHFFFAOYSA-N

> <Salt_Solvent>


> <Salt_Solvent_ID>
0

> <MPID>
100430

> <Tr_1_Tst_0>
1

> <Ready_Biodeg>
1.0

$$$$
Row412
  Mrv171c012251911052D          

  9  9  0  0  0  0            999 V2000
    3.0381   -2.4903    0.0000 O   0  0  0  0  0  0  0  0  0  0  0  0
    2.3236   -2.9028    0.0000 C   0  0  0  0  0  0  0  0  0  0  0  0
    3.0381   -1.6653    0.0000 C   0  0  0  0  0  0  0  0  0  0  0  0
    3.7526   -1.2528    0.0000 C   0  0  0  0  0  0  0  0  0  0  0  0
    3.7526   -0.4278    0.0000 C   0  0  0  0  0  0  0  0  0  0  0  0
    3.0381   -0.0153    0.0000 C   0  0  0  0  0  0  0  0  0  0  0  0
    3.0381    0.8097    0.0000 N   0  0  0  0  0  0  0  0  0  0  0  0
    2.3236   -0.4278    0.0000 C   0  0  0  0  0  0  0  0  0  0  0  0
    2.3236   -1.2528    0.0000 C   0  0  0  0  0  0  0  0  0  0  0  0
  1  2  1  0  0  0  0
  1  3  1  0  0  0  0
  4  3  1  0  0  0  0
  5  4  2  0  0  0  0
  6  5  1  0  0  0  0
  6  7  1  0  0  0  0
  8  6  2  0  0  0  0
  9  8  1  0  0  0  0
  3  9  2  0  0  0  0
M  END
> <ChemID>
100421

> <CAS>
104-94-9

> <Original_SMILES>
COc1ccc(N)cc1

> <preferred_name>
4-Methoxyaniline

> <dsstox_substance_id>
DTXSID7024532

> <dsstox_compound_id>
DTXCID104532

> <qc_level>
DSSTox_Low

> <Canonical_QSARr>
COC1C=CC(N)=CC=1

> <InChI_Code_QSARr>
InChI=1S/C7H9NO/c1-9-7-4-2-6(8)3-5-7/h2-5H,8H2,1H3

> <InChI Key_QSARr>
BHAAPTBBJKJZER-UHFFFAOYSA-N

> <Salt_Solvent>


> <Salt_Solvent_ID>
0

> <MPID>
100431

> <Tr_1_Tst_0>
0

> <Ready_Biodeg>
1.0

$$$$
Row413
  Mrv171c012251911052D          

 10 10  0  0  0  0            999 V2000
    2.2035   -1.5415    0.0000 C   0  0  0  0  0  0  0  0  0  0  0  0
    2.2035   -2.3665    0.0000 C   0  0  0  0  0  0  0  0  0  0  0  0
    1.4891   -2.7790    0.0000 C   0  0  0  0  0  0  0  0  0  0  0  0
    2.9180   -1.1290    0.0000 C   0  0  0  0  0  0  0  0  0  0  0  0
    2.9180   -0.3040    0.0000 C   0  0  0  0  0  0  0  0  0  0  0  0
    2.2035    0.1085    0.0000 C   0  0  0  0  0  0  0  0  0  0  0  0
    2.2035    0.9335    0.0000 C   0  0  0  0  0  0  0  0  0  0  0  0
    1.4891    1.3460    0.0000 C   0  0  0  0  0  0  0  0  0  0  0  0
    1.4891   -0.3040    0.0000 C   0  0  0  0  0  0  0  0  0  0  0  0
    1.4891   -1.1290    0.0000 C   0  0  0  0  0  0  0  0  0  0  0  0
  1  2  1  0  0  0  0
  2  3  1  0  0  0  0
  4  1  1  0  0  0  0
  5  4  2  0  0  0  0
  6  5  1  0  0  0  0
  6  7  1  0  0  0  0
  7  8  1  0  0  0  0
  9  6  2  0  0  0  0
 10  9  1  0  0  0  0
  1 10  2  0  0  0  0
M  END
> <ChemID>
100422

> <CAS>
105-05-5

> <Original_SMILES>
CCc1ccc(CC)cc1

> <preferred_name>
1,4-Diethylbenzene

> <dsstox_substance_id>
DTXSID4026711

> <dsstox_compound_id>
DTXCID706711

> <qc_level>
DSSTox_Low

> <Canonical_QSARr>
CCC1C=CC(CC)=CC=1

> <InChI_Code_QSARr>
InChI=1S/C10H14/c1-3-9-5-7-10(4-2)8-6-9/h5-8H,3-4H2,1-2H3

> <InChI Key_QSARr>
DSNHSQKRULAAEI-UHFFFAOYSA-N

> <Salt_Solvent>


> <Salt_Solvent_ID>
0

> <MPID>
100432

> <Tr_1_Tst_0>
1

> <Ready_Biodeg>
0.0

$$$$
Row414
  Mrv171c012251911052D          

 10 10  0  0  0  0            999 V2000
    3.4524   -1.9748    0.0000 C   0  0  0  0  0  0  0  0  0  0  0  0
    3.4524   -2.7998    0.0000 C   0  0  0  0  0  0  0  0  0  0  0  0
    2.7379   -3.2123    0.0000 C   0  0  0  0  0  0  0  0  0  0  0  0
    4.1668   -1.5623    0.0000 C   0  0  0  0  0  0  0  0  0  0  0  0
    4.1668   -0.7373    0.0000 C   0  0  0  0  0  0  0  0  0  0  0  0
    3.4524   -0.3248    0.0000 C   0  0  0  0  0  0  0  0  0  0  0  0
    3.4524    0.5002    0.0000 C   0  0  0  0  0  0  0  0  0  0  0  0
    2.7379    0.9127    0.0000 C   0  0  0  0  0  0  0  0  0  0  0  0
    2.7379   -0.7373    0.0000 C   0  0  0  0  0  0  0  0  0  0  0  0
    2.7379   -1.5623    0.0000 C   0  0  0  0  0  0  0  0  0  0  0  0
  1  2  1  0  0  0  0
  2  3  2  0  0  0  0
  4  1  1  0  0  0  0
  5  4  2  0  0  0  0
  6  5  1  0  0  0  0
  6  7  1  0  0  0  0
  7  8  2  0  0  0  0
  9  6  2  0  0  0  0
 10  9  1  0  0  0  0
  1 10  2  0  0  0  0
M  END
> <ChemID>
100423

> <CAS>
105-06-6

> <Original_SMILES>
C=Cc1ccc(cc1)C=C

> <preferred_name>
1,4-Divinylbenzene

> <dsstox_substance_id>
DTXSID2033863

> <dsstox_compound_id>
DTXCID0013863

> <qc_level>
DSSTox_High

> <Canonical_QSARr>
C=CC1C=CC(=CC=1)C=C

> <InChI_Code_QSARr>
InChI=1S/C10H10/c1-3-9-5-7-10(4-2)8-6-9/h3-8H,1-2H2

> <InChI Key_QSARr>
WEERVPDNCOGWJF-UHFFFAOYSA-N

> <Salt_Solvent>


> <Salt_Solvent_ID>
0

> <MPID>
100433

> <Tr_1_Tst_0>
1

> <Ready_Biodeg>
0.0

$$$$
Row415
  Mrv171c012251911052D          

  8  8  0  0  0  0            999 V2000
    1.5521    0.6283    0.0000 O   0  0  0  0  0  0  0  0  0  0  0  0
    1.5521   -0.1967    0.0000 C   0  0  0  0  0  0  0  0  0  0  0  0
    0.8088   -0.5547    0.0000 N   0  0  0  0  0  0  0  0  0  0  0  0
    0.6252   -1.3590    0.0000 C   0  0  0  0  0  0  0  0  0  0  0  0
    1.1396   -2.0040    0.0000 C   0  0  0  0  0  0  0  0  0  0  0  0
    1.9646   -2.0040    0.0000 C   0  0  0  0  0  0  0  0  0  0  0  0
    2.4790   -1.3590    0.0000 C   0  0  0  0  0  0  0  0  0  0  0  0
    2.2954   -0.5547    0.0000 C   0  0  0  0  0  0  0  0  0  0  0  0
  1  2  2  0  0  0  0
  3  2  1  0  0  0  0
  4  3  1  0  0  0  0
  5  4  1  0  0  0  0
  6  5  1  0  0  0  0
  7  6  1  0  0  0  0
  8  7  1  0  0  0  0
  2  8  1  0  0  0  0
M  END
> <ChemID>
100424

> <CAS>
105-60-2

> <Original_SMILES>
O=C1CCCCCN1

> <preferred_name>
Caprolactam

> <dsstox_substance_id>
DTXSID4020240

> <dsstox_compound_id>
DTXCID00240

> <qc_level>
DSSTox_Low

> <Canonical_QSARr>
O=C1CCCCCN1

> <InChI_Code_QSARr>
InChI=1S/C6H11NO/c8-6-4-2-1-3-5-7-6/h1-5H2,(H,7,8)

> <InChI Key_QSARr>
JBKVHLHDHHXQEQ-UHFFFAOYSA-N

> <Salt_Solvent>


> <Salt_Solvent_ID>
0

> <MPID>
100434

> <Tr_1_Tst_0>
1

> <Ready_Biodeg>
1.0

$$$$
Row416
  Mrv171c012251911052D          

  9  9  0  0  0  0            999 V2000
    1.7474   -2.4749    0.0000 O   0  0  0  0  0  0  0  0  0  0  0  0
    1.7474   -1.6499    0.0000 C   0  0  0  0  0  0  0  0  0  0  0  0
    2.4618   -1.2374    0.0000 C   0  0  0  0  0  0  0  0  0  0  0  0
    2.4618   -0.4124    0.0000 C   0  0  0  0  0  0  0  0  0  0  0  0
    1.7474    0.0001    0.0000 C   0  0  0  0  0  0  0  0  0  0  0  0
    1.7474    0.8251    0.0000 C   0  0  0  0  0  0  0  0  0  0  0  0
    1.0329   -0.4124    0.0000 C   0  0  0  0  0  0  0  0  0  0  0  0
    1.0329   -1.2374    0.0000 C   0  0  0  0  0  0  0  0  0  0  0  0
    0.3184   -1.6499    0.0000 C   0  0  0  0  0  0  0  0  0  0  0  0
  1  2  1  0  0  0  0
  3  2  1  0  0  0  0
  4  3  2  0  0  0  0
  5  4  1  0  0  0  0
  5  6  1  0  0  0  0
  7  5  2  0  0  0  0
  8  7  1  0  0  0  0
  2  8  2  0  0  0  0
  8  9  1  0  0  0  0
M  END
> <ChemID>
100425

> <CAS>
105-67-9

> <Original_SMILES>
Cc1cc(C)c(O)cc1

> <preferred_name>
2,4-Dimethylphenol

> <dsstox_substance_id>
DTXSID2021864

> <dsstox_compound_id>
DTXCID101864

> <qc_level>
DSSTox_Low

> <Canonical_QSARr>
CC1=CC(C)=C(O)C=C1

> <InChI_Code_QSARr>
InChI=1S/C8H10O/c1-6-3-4-8(9)7(2)5-6/h3-5,9H,1-2H3

> <InChI Key_QSARr>
KUFFULVDNCHOFZ-UHFFFAOYSA-N

> <Salt_Solvent>


> <Salt_Solvent_ID>
0

> <MPID>
100435

> <Tr_1_Tst_0>
0

> <Ready_Biodeg>
1.0

$$$$
Row417
  Mrv171c012251911052D          

 21 20  0  0  0  0            999 V2000
    0.5993   -1.2337    0.0000 C   0  0  0  0  0  0  0  0  0  0  0  0
   -0.1152   -0.8212    0.0000 O   0  0  0  0  0  0  0  0  0  0  0  0
    0.5993   -2.0587    0.0000 O   0  0  0  0  0  0  0  0  0  0  0  0
    1.3137   -0.8212    0.0000 C   0  0  0  0  0  0  0  0  0  0  0  0
    2.0282   -1.2337    0.0000 C   0  0  0  0  0  0  0  0  0  0  0  0
    2.7427   -0.8212    0.0000 C   0  0  0  0  0  0  0  0  0  0  0  0
    3.4572   -1.2337    0.0000 C   0  0  0  0  0  0  0  0  0  0  0  0
    4.1716   -0.8212    0.0000 C   0  0  0  0  0  0  0  0  0  0  0  0
    4.8861   -1.2337    0.0000 C   0  0  0  0  0  0  0  0  0  0  0  0
    5.6006   -0.8212    0.0000 C   0  0  0  0  0  0  0  0  0  0  0  0
    6.3150   -1.2337    0.0000 C   0  0  0  0  0  0  0  0  0  0  0  0
    7.0295   -0.8212    0.0000 C   0  0  0  0  0  0  0  0  0  0  0  0
    7.7440   -1.2337    0.0000 C   0  0  0  0  0  0  0  0  0  0  0  0
    8.4585   -0.8212    0.0000 C   0  0  0  0  0  0  0  0  0  0  0  0
    8.4585    0.0038    0.0000 O   0  0  0  0  0  0  0  0  0  0  0  0
    9.1729   -1.2337    0.0000 C   0  0  0  0  0  0  0  0  0  0  0  0
    9.8874   -0.8212    0.0000 C   0  0  0  0  0  0  0  0  0  0  0  0
   10.6019   -1.2337    0.0000 C   0  0  0  0  0  0  0  0  0  0  0  0
   11.3163   -0.8212    0.0000 C   0  0  0  0  0  0  0  0  0  0  0  0
   12.0308   -1.2337    0.0000 C   0  0  0  0  0  0  0  0  0  0  0  0
   12.7453   -0.8212    0.0000 C   0  0  0  0  0  0  0  0  0  0  0  0
  1  2  2  0  0  0  0
  1  3  1  0  0  0  0
  1  4  1  0  0  0  0
  4  5  1  0  0  0  0
  5  6  1  0  0  0  0
  6  7  1  0  0  0  0
  7  8  1  0  0  0  0
  8  9  1  0  0  0  0
  9 10  1  0  0  0  0
 10 11  1  0  0  0  0
 11 12  1  0  0  0  0
 12 13  1  0  0  0  0
 13 14  1  0  0  0  0
 14 15  1  0  0  0  0
 14 16  1  0  0  0  0
 16 17  1  0  0  0  0
 17 18  1  0  0  0  0
 18 19  1  0  0  0  0
 19 20  1  0  0  0  0
 20 21  1  0  0  0  0
M  END
> <ChemID>
100426

> <CAS>
106-14-9

> <Original_SMILES>
CCCCCCC(O)CCCCCCCCCCC(O)=O

> <preferred_name>
12-Hydroxyoctadecanoic acid

> <dsstox_substance_id>
DTXSID8026725

> <dsstox_compound_id>
DTXCID606725

> <qc_level>
DSSTox_Low

> <Canonical_QSARr>
CCCCCCC(O)CCCCCCCCCCC(O)=O

> <InChI_Code_QSARr>
InChI=1S/C18H36O3/c1-2-3-4-11-14-17(19)15-12-9-7-5-6-8-10-13-16-18(20)21/h17,19H,2-16H2,1H3,(H,20,21)

> <InChI Key_QSARr>
ULQISTXYYBZJSJ-UHFFFAOYSA-N

> <Salt_Solvent>


> <Salt_Solvent_ID>
0

> <MPID>
100436

> <Tr_1_Tst_0>
1

> <Ready_Biodeg>
1.0

$$$$
Row418
  Mrv171c012251911052D          

 11 10  0  0  0  0            999 V2000
    3.7125    2.1434    0.0000 C   0  0  0  0  0  0  0  0  0  0  0  0
    3.3000    1.4289    0.0000 C   0  0  0  0  0  0  0  0  0  0  0  0
    3.7125    0.7145    0.0000 C   0  0  0  0  0  0  0  0  0  0  0  0
    2.4750    1.4289    0.0000 C   0  0  0  0  0  0  0  0  0  0  0  0
    2.0625    0.7145    0.0000 C   0  0  0  0  0  0  0  0  0  0  0  0
    1.2375    0.7145    0.0000 C   0  0  0  0  0  0  0  0  0  0  0  0
    0.8250    0.0000    0.0000 C   0  0  0  0  0  0  0  0  0  0  0  0
    1.2375   -0.7145    0.0000 C   0  0  0  0  0  0  0  0  0  0  0  0
    0.0000    0.0000    0.0000 C   0  0  0  0  0  0  0  0  0  0  0  0
   -0.4125   -0.7145    0.0000 C   0  0  0  0  0  0  0  0  0  0  0  0
    0.0000   -1.4289    0.0000 O   0  0  0  0  0  0  0  0  0  0  0  0
  1  2  1  0  0  0  0
  2  3  1  0  0  0  0
  2  4  2  0  0  0  0
  4  5  1  0  0  0  0
  5  6  1  0  0  0  0
  6  7  1  0  0  0  0
  7  8  1  0  0  0  0
  7  9  2  0  0  0  0
  9 10  1  4  0  0  0
 10 11  1  0  0  0  0
M  END
> <ChemID>
100427

> <CAS>
106-24-1|624-15-7

> <Original_SMILES>
CC(C)=CCC/C(/C)=C/CO

> <preferred_name>
Geraniol|2,6-Octadien-1-ol, 3,7-dimethyl-

> <dsstox_substance_id>
DTXSID8026727|DTXSID7041380

> <dsstox_compound_id>
DTXCID406727|DTXCID5021380

> <qc_level>
DSSTox_Low

> <Canonical_QSARr>
CC(C)=CCCC(C)=CCO

> <InChI_Code_QSARr>
InChI=1S/C10H18O/c1-9(2)5-4-6-10(3)7-8-11/h5,7,11H,4,6,8H2,1-3H3

> <InChI Key_QSARr>
GLZPCOQZEFWAFX-UHFFFAOYSA-N

> <Salt_Solvent>


> <Salt_Solvent_ID>
0

> <MPID>
100437|100877

> <Tr_1_Tst_0>
1

> <Ready_Biodeg>
1.0

$$$$
Row419
  Mrv171c012251911052D          

  8  8  0  0  0  0            999 V2000
    0.7121   -3.2906    0.0000 Br  0  0  0  0  0  0  0  0  0  0  0  0
    0.7121   -2.4656    0.0000 C   0  0  0  0  0  0  0  0  0  0  0  0
    1.4265   -2.0531    0.0000 C   0  0  0  0  0  0  0  0  0  0  0  0
    1.4265   -1.2281    0.0000 C   0  0  0  0  0  0  0  0  0  0  0  0
    0.7121   -0.8156    0.0000 C   0  0  0  0  0  0  0  0  0  0  0  0
    0.7121    0.0094    0.0000 Br  0  0  0  0  0  0  0  0  0  0  0  0
   -0.0024   -1.2281    0.0000 C   0  0  0  0  0  0  0  0  0  0  0  0
   -0.0024   -2.0531    0.0000 C   0  0  0  0  0  0  0  0  0  0  0  0
  1  2  1  0  0  0  0
  3  2  1  0  0  0  0
  4  3  2  0  0  0  0
  5  4  1  0  0  0  0
  5  6  1  0  0  0  0
  7  5  2  0  0  0  0
  8  7  1  0  0  0  0
  2  8  2  0  0  0  0
M  END
> <ChemID>
100428

> <CAS>
106-37-6

> <Original_SMILES>
Brc1ccc(Br)cc1

> <preferred_name>
1,4-Dibromobenzene

> <dsstox_substance_id>
DTXSID4024012

> <dsstox_compound_id>
DTXCID504012

> <qc_level>
DSSTox_Low

> <Canonical_QSARr>
BrC1C=CC(Br)=CC=1

> <InChI_Code_QSARr>
InChI=1S/C6H4Br2/c7-5-1-2-6(8)4-3-5/h1-4H

> <InChI Key_QSARr>
SWJPEBQEEAHIGZ-UHFFFAOYSA-N

> <Salt_Solvent>


> <Salt_Solvent_ID>
0

> <MPID>
100438

> <Tr_1_Tst_0>
1

> <Ready_Biodeg>
0.0

$$$$
Row420
  Mrv171c012251911052D          

  8  8  0  0  0  0            999 V2000
    0.7109   -2.4876    0.0000 C   0  0  0  0  0  0  0  0  0  0  0  0
    1.4254   -2.0751    0.0000 C   0  0  0  0  0  0  0  0  0  0  0  0
    1.4254   -1.2501    0.0000 C   0  0  0  0  0  0  0  0  0  0  0  0
    0.7109   -0.8376    0.0000 C   0  0  0  0  0  0  0  0  0  0  0  0
    0.7109   -0.0126    0.0000 Br  0  0  0  0  0  0  0  0  0  0  0  0
   -0.0036   -1.2501    0.0000 C   0  0  0  0  0  0  0  0  0  0  0  0
   -0.0036   -2.0751    0.0000 C   0  0  0  0  0  0  0  0  0  0  0  0
    0.7109   -3.3126    0.0000 O   0  0  0  0  0  0  0  0  0  0  0  0
  2  1  1  0  0  0  0
  3  2  2  0  0  0  0
  4  3  1  0  0  0  0
  4  5  1  0  0  0  0
  6  4  2  0  0  0  0
  7  6  1  0  0  0  0
  1  7  2  0  0  0  0
  1  8  1  0  0  0  0
M  END
> <ChemID>
100429

> <CAS>
106-41-2

> <Original_SMILES>
Oc1ccc(Br)cc1

> <preferred_name>
4-Bromophenol

> <dsstox_substance_id>
DTXSID3051543

> <dsstox_compound_id>
DTXCID4030095

> <qc_level>
DSSTox_High

> <Canonical_QSARr>
OC1=CC=C(Br)C=C1

> <InChI_Code_QSARr>
InChI=1S/C6H5BrO/c7-5-1-3-6(8)4-2-5/h1-4,8H

> <InChI Key_QSARr>
GZFGOTFRPZRKDS-UHFFFAOYSA-N

> <Salt_Solvent>


> <Salt_Solvent_ID>
0

> <MPID>
100439

> <Tr_1_Tst_0>
0

> <Ready_Biodeg>
0.0

$$$$
Row421
  Mrv171c012251911052D          

  8  8  0  0  0  0            999 V2000
    1.6500   -2.3653    0.0000 C   0  0  0  0  0  0  0  0  0  0  0  0
    1.6500   -1.5403    0.0000 C   0  0  0  0  0  0  0  0  0  0  0  0
    2.3645   -1.1278    0.0000 C   0  0  0  0  0  0  0  0  0  0  0  0
    2.3645   -0.3028    0.0000 C   0  0  0  0  0  0  0  0  0  0  0  0
    1.6500    0.1097    0.0000 C   0  0  0  0  0  0  0  0  0  0  0  0
    1.6500    0.9347    0.0000 C   0  0  0  0  0  0  0  0  0  0  0  0
    0.9355   -0.3028    0.0000 C   0  0  0  0  0  0  0  0  0  0  0  0
    0.9355   -1.1278    0.0000 C   0  0  0  0  0  0  0  0  0  0  0  0
  1  2  1  0  0  0  0
  3  2  1  0  0  0  0
  4  3  2  0  0  0  0
  5  4  1  0  0  0  0
  5  6  1  0  0  0  0
  7  5  2  0  0  0  0
  8  7  1  0  0  0  0
  2  8  2  0  0  0  0
M  END
> <ChemID>
100430

> <CAS>
106-42-3

> <Original_SMILES>
Cc1ccc(C)cc1

> <preferred_name>
p-Xylene

> <dsstox_substance_id>
DTXSID2021868

> <dsstox_compound_id>
DTXCID701868

> <qc_level>
DSSTox_Low

> <Canonical_QSARr>
CC1C=CC(C)=CC=1

> <InChI_Code_QSARr>
InChI=1S/C8H10/c1-7-3-5-8(2)6-4-7/h3-6H,1-2H3

> <InChI Key_QSARr>
URLKBWYHVLBVBO-UHFFFAOYSA-N

> <Salt_Solvent>


> <Salt_Solvent_ID>
0

> <MPID>
100440

> <Tr_1_Tst_0>
1

> <Ready_Biodeg>
1.0

$$$$
Row422
  Mrv171c012251911052D          

  8  8  0  0  0  0            999 V2000
    1.6500   -2.3653    0.0000 C   0  0  0  0  0  0  0  0  0  0  0  0
    1.6500   -1.5403    0.0000 C   0  0  0  0  0  0  0  0  0  0  0  0
    2.3645   -1.1278    0.0000 C   0  0  0  0  0  0  0  0  0  0  0  0
    2.3645   -0.3028    0.0000 C   0  0  0  0  0  0  0  0  0  0  0  0
    1.6500    0.1097    0.0000 C   0  0  0  0  0  0  0  0  0  0  0  0
    1.6500    0.9347    0.0000 Cl  0  0  0  0  0  0  0  0  0  0  0  0
    0.9355   -0.3028    0.0000 C   0  0  0  0  0  0  0  0  0  0  0  0
    0.9355   -1.1278    0.0000 C   0  0  0  0  0  0  0  0  0  0  0  0
  1  2  1  0  0  0  0
  3  2  1  0  0  0  0
  4  3  2  0  0  0  0
  5  4  1  0  0  0  0
  5  6  1  0  0  0  0
  7  5  2  0  0  0  0
  8  7  1  0  0  0  0
  2  8  2  0  0  0  0
M  END
> <ChemID>
100431

> <CAS>
106-43-4

> <Original_SMILES>
Cc1ccc(Cl)cc1

> <preferred_name>
4-Chlorotoluene

> <dsstox_substance_id>
DTXSID8024814

> <dsstox_compound_id>
DTXCID904814

> <qc_level>
DSSTox_Low

> <Canonical_QSARr>
CC1=CC=C(Cl)C=C1

> <InChI_Code_QSARr>
InChI=1S/C7H7Cl/c1-6-2-4-7(8)5-3-6/h2-5H,1H3

> <InChI Key_QSARr>
NPDACUSDTOMAMK-UHFFFAOYSA-N

> <Salt_Solvent>


> <Salt_Solvent_ID>
0

> <MPID>
100441

> <Tr_1_Tst_0>
1

> <Ready_Biodeg>
0.0

$$$$
Row423
  Mrv171c012251911052D          

  8  8  0  0  0  0            999 V2000
    1.6500   -2.3653    0.0000 O   0  0  0  0  0  0  0  0  0  0  0  0
    1.6500   -1.5403    0.0000 C   0  0  0  0  0  0  0  0  0  0  0  0
    2.3645   -1.1278    0.0000 C   0  0  0  0  0  0  0  0  0  0  0  0
    2.3645   -0.3028    0.0000 C   0  0  0  0  0  0  0  0  0  0  0  0
    1.6500    0.1097    0.0000 C   0  0  0  0  0  0  0  0  0  0  0  0
    1.6500    0.9347    0.0000 C   0  0  0  0  0  0  0  0  0  0  0  0
    0.9355   -0.3028    0.0000 C   0  0  0  0  0  0  0  0  0  0  0  0
    0.9355   -1.1278    0.0000 C   0  0  0  0  0  0  0  0  0  0  0  0
  1  2  1  0  0  0  0
  3  2  1  0  0  0  0
  4  3  2  0  0  0  0
  5  4  1  0  0  0  0
  5  6  1  0  0  0  0
  7  5  2  0  0  0  0
  8  7  1  0  0  0  0
  2  8  2  0  0  0  0
M  END
> <ChemID>
100432

> <CAS>
106-44-5

> <Original_SMILES>
Cc1ccc(O)cc1

> <preferred_name>
p-Cresol

> <dsstox_substance_id>
DTXSID7021869

> <dsstox_compound_id>
DTXCID101869

> <qc_level>
DSSTox_Low

> <Canonical_QSARr>
CC1=CC=C(O)C=C1

> <InChI_Code_QSARr>
InChI=1S/C7H8O/c1-6-2-4-7(8)5-3-6/h2-5,8H,1H3

> <InChI Key_QSARr>
IWDCLRJOBJJRNH-UHFFFAOYSA-N

> <Salt_Solvent>


> <Salt_Solvent_ID>
0

> <MPID>
100442

> <Tr_1_Tst_0>
1

> <Ready_Biodeg>
1.0

$$$$
Row424
  Mrv171c012251911052D          

  8  8  0  0  0  0            999 V2000
    1.6500   -2.3653    0.0000 N   0  0  0  0  0  0  0  0  0  0  0  0
    1.6500   -1.5403    0.0000 C   0  0  0  0  0  0  0  0  0  0  0  0
    2.3645   -1.1278    0.0000 C   0  0  0  0  0  0  0  0  0  0  0  0
    2.3645   -0.3028    0.0000 C   0  0  0  0  0  0  0  0  0  0  0  0
    1.6500    0.1097    0.0000 C   0  0  0  0  0  0  0  0  0  0  0  0
    1.6500    0.9347    0.0000 Cl  0  0  0  0  0  0  0  0  0  0  0  0
    0.9355   -0.3028    0.0000 C   0  0  0  0  0  0  0  0  0  0  0  0
    0.9355   -1.1278    0.0000 C   0  0  0  0  0  0  0  0  0  0  0  0
  1  2  1  0  0  0  0
  3  2  1  0  0  0  0
  4  3  2  0  0  0  0
  5  4  1  0  0  0  0
  5  6  1  0  0  0  0
  7  5  2  0  0  0  0
  8  7  1  0  0  0  0
  2  8  2  0  0  0  0
M  END
> <ChemID>
100433

> <CAS>
106-47-8

> <Original_SMILES>
Nc1ccc(Cl)cc1

> <preferred_name>
4-Chloroaniline

> <dsstox_substance_id>
DTXSID9020295

> <dsstox_compound_id>
DTXCID50295

> <qc_level>
DSSTox_Low

> <Canonical_QSARr>
NC1=CC=C(Cl)C=C1

> <InChI_Code_QSARr>
InChI=1S/C6H6ClN/c7-5-1-3-6(8)4-2-5/h1-4H,8H2

> <InChI Key_QSARr>
QSNSCYSYFYORTR-UHFFFAOYSA-N

> <Salt_Solvent>


> <Salt_Solvent_ID>
0

> <MPID>
100443

> <Tr_1_Tst_0>
0

> <Ready_Biodeg>
0.0

$$$$
Row425
  Mrv171c012251911052D          

  8  8  0  0  0  0            999 V2000
    1.6500   -2.3653    0.0000 O   0  0  0  0  0  0  0  0  0  0  0  0
    1.6500   -1.5403    0.0000 C   0  0  0  0  0  0  0  0  0  0  0  0
    2.3645   -1.1278    0.0000 C   0  0  0  0  0  0  0  0  0  0  0  0
    2.3645   -0.3028    0.0000 C   0  0  0  0  0  0  0  0  0  0  0  0
    1.6500    0.1097    0.0000 C   0  0  0  0  0  0  0  0  0  0  0  0
    1.6500    0.9347    0.0000 Cl  0  0  0  0  0  0  0  0  0  0  0  0
    0.9355   -0.3028    0.0000 C   0  0  0  0  0  0  0  0  0  0  0  0
    0.9355   -1.1278    0.0000 C   0  0  0  0  0  0  0  0  0  0  0  0
  1  2  1  0  0  0  0
  3  2  1  0  0  0  0
  4  3  2  0  0  0  0
  5  4  1  0  0  0  0
  5  6  1  0  0  0  0
  7  5  2  0  0  0  0
  8  7  1  0  0  0  0
  2  8  2  0  0  0  0
M  END
> <ChemID>
100434

> <CAS>
106-48-9

> <Original_SMILES>
Oc1ccc(Cl)cc1

> <preferred_name>
4-Chlorophenol

> <dsstox_substance_id>
DTXSID1021871

> <dsstox_compound_id>
DTXCID201871

> <qc_level>
DSSTox_Low

> <Canonical_QSARr>
OC1=CC=C(Cl)C=C1

> <InChI_Code_QSARr>
InChI=1S/C6H5ClO/c7-5-1-3-6(8)4-2-5/h1-4,8H

> <InChI Key_QSARr>
WXNZTHHGJRFXKQ-UHFFFAOYSA-N

> <Salt_Solvent>


> <Salt_Solvent_ID>
0

> <MPID>
100444

> <Tr_1_Tst_0>
1

> <Ready_Biodeg>
0.0

$$$$
Row426
  Mrv171c012251911052D          

  8  8  0  0  0  0            999 V2000
    1.6500   -2.3653    0.0000 N   0  0  0  0  0  0  0  0  0  0  0  0
    1.6500   -1.5403    0.0000 C   0  0  0  0  0  0  0  0  0  0  0  0
    2.3645   -1.1278    0.0000 C   0  0  0  0  0  0  0  0  0  0  0  0
    2.3645   -0.3028    0.0000 C   0  0  0  0  0  0  0  0  0  0  0  0
    1.6500    0.1097    0.0000 C   0  0  0  0  0  0  0  0  0  0  0  0
    1.6500    0.9347    0.0000 C   0  0  0  0  0  0  0  0  0  0  0  0
    0.9355   -0.3028    0.0000 C   0  0  0  0  0  0  0  0  0  0  0  0
    0.9355   -1.1278    0.0000 C   0  0  0  0  0  0  0  0  0  0  0  0
  1  2  1  0  0  0  0
  3  2  1  0  0  0  0
  4  3  2  0  0  0  0
  5  4  1  0  0  0  0
  5  6  1  0  0  0  0
  7  5  2  0  0  0  0
  8  7  1  0  0  0  0
  2  8  2  0  0  0  0
M  END
> <ChemID>
100435

> <CAS>
106-49-0

> <Original_SMILES>
Cc1ccc(N)cc1

> <preferred_name>
4-Methylaniline

> <dsstox_substance_id>
DTXSID6021872

> <dsstox_compound_id>
DTXCID601872

> <qc_level>
DSSTox_Low

> <Canonical_QSARr>
CC1=CC=C(N)C=C1

> <InChI_Code_QSARr>
InChI=1S/C7H9N/c1-6-2-4-7(8)5-3-6/h2-5H,8H2,1H3

> <InChI Key_QSARr>
RZXMPPFPUUCRFN-UHFFFAOYSA-N

> <Salt_Solvent>


> <Salt_Solvent_ID>
0

> <MPID>
100445

> <Tr_1_Tst_0>
1

> <Ready_Biodeg>
1.0

$$$$
Row427
  Mrv171c012251911052D          

  8  8  0  0  0  0            999 V2000
    1.6500   -2.3653    0.0000 N   0  0  0  0  0  0  0  0  0  0  0  0
    1.6500   -1.5403    0.0000 C   0  0  0  0  0  0  0  0  0  0  0  0
    2.3645   -1.1278    0.0000 C   0  0  0  0  0  0  0  0  0  0  0  0
    2.3645   -0.3028    0.0000 C   0  0  0  0  0  0  0  0  0  0  0  0
    1.6500    0.1097    0.0000 C   0  0  0  0  0  0  0  0  0  0  0  0
    1.6500    0.9347    0.0000 N   0  0  0  0  0  0  0  0  0  0  0  0
    0.9355   -0.3028    0.0000 C   0  0  0  0  0  0  0  0  0  0  0  0
    0.9355   -1.1278    0.0000 C   0  0  0  0  0  0  0  0  0  0  0  0
  1  2  1  0  0  0  0
  3  2  1  0  0  0  0
  4  3  2  0  0  0  0
  5  4  1  0  0  0  0
  5  6  1  0  0  0  0
  7  5  2  0  0  0  0
  8  7  1  0  0  0  0
  2  8  2  0  0  0  0
M  END
> <ChemID>
100436

> <CAS>
106-50-3

> <Original_SMILES>
Nc1ccc(N)cc1

> <preferred_name>
1,4-Benzenediamine

> <dsstox_substance_id>
DTXSID9021138

> <dsstox_compound_id>
DTXCID401138

> <qc_level>
DSSTox_Low

> <Canonical_QSARr>
NC1C=CC(N)=CC=1

> <InChI_Code_QSARr>
InChI=1S/C6H8N2/c7-5-1-2-6(8)4-3-5/h1-4H,7-8H2

> <InChI Key_QSARr>
CBCKQZAAMUWICA-UHFFFAOYSA-N

> <Salt_Solvent>


> <Salt_Solvent_ID>
0

> <MPID>
100446

> <Tr_1_Tst_0>
1

> <Ready_Biodeg>
0.0

$$$$
Row428
  Mrv171c012251911052D          

  5  5  0  0  0  0            999 V2000
    1.8193    0.4567    0.0000 C   0  0  0  0  0  0  0  0  0  0  0  0
    1.1049    0.0442    0.0000 C   0  0  0  0  0  0  0  0  0  0  0  0
    1.1049   -0.7808    0.0000 C   0  0  0  0  0  0  0  0  0  0  0  0
    0.6924   -1.4953    0.0000 O   0  0  0  0  0  0  0  0  0  0  0  0
    1.5174   -1.4953    0.0000 C   0  0  0  0  0  0  0  0  0  0  0  0
  1  2  1  0  0  0  0
  2  3  1  0  0  0  0
  4  3  1  0  0  0  0
  5  4  1  0  0  0  0
  3  5  1  0  0  0  0
M  END
> <ChemID>
100437

> <CAS>
106-88-7

> <Original_SMILES>
CCC1CO1

> <preferred_name>
1,2-Epoxybutane

> <dsstox_substance_id>
DTXSID6020569

> <dsstox_compound_id>
DTXCID40569

> <qc_level>
DSSTox_Low

> <Canonical_QSARr>
CCC1CO1

> <InChI_Code_QSARr>
InChI=1S/C4H8O/c1-2-4-3-5-4/h4H,2-3H2,1H3

> <InChI Key_QSARr>
RBACIKXCRWGCBB-UHFFFAOYSA-N

> <Salt_Solvent>


> <Salt_Solvent_ID>
0

> <MPID>
100447

> <Tr_1_Tst_0>
0

> <Ready_Biodeg>
1.0

$$$$
Row429
  Mrv171c012251911052D          

  5  5  0  0  0  0            999 V2000
    1.8193    0.4567    0.0000 Cl  0  0  0  0  0  0  0  0  0  0  0  0
    1.1049    0.0442    0.0000 C   0  0  0  0  0  0  0  0  0  0  0  0
    1.1049   -0.7808    0.0000 C   0  0  0  0  0  0  0  0  0  0  0  0
    0.6924   -1.4953    0.0000 O   0  0  0  0  0  0  0  0  0  0  0  0
    1.5174   -1.4953    0.0000 C   0  0  0  0  0  0  0  0  0  0  0  0
  1  2  1  0  0  0  0
  2  3  1  0  0  0  0
  4  3  1  0  0  0  0
  5  4  1  0  0  0  0
  3  5  1  0  0  0  0
M  END
> <ChemID>
100438

> <CAS>
106-89-8

> <Original_SMILES>
ClCC1CO1

> <preferred_name>
Epichlorohydrin

> <dsstox_substance_id>
DTXSID1020566

> <dsstox_compound_id>
DTXCID50566

> <qc_level>
DSSTox_High

> <Canonical_QSARr>
ClCC1CO1

> <InChI_Code_QSARr>
InChI=1S/C3H5ClO/c4-1-3-2-5-3/h3H,1-2H2

> <InChI Key_QSARr>
BRLQWZUYTZBJKN-UHFFFAOYSA-N

> <Salt_Solvent>


> <Salt_Solvent_ID>
0

> <MPID>
100448

> <Tr_1_Tst_0>
1

> <Ready_Biodeg>
0.0

$$$$
Row430
  Mrv171c012251911052D          

 10 10  0  0  0  0            999 V2000
    1.2694   -0.8980    0.0000 C   0  0  0  0  0  0  0  0  0  0  0  0
    0.5550   -1.3105    0.0000 C   0  0  0  0  0  0  0  0  0  0  0  0
   -0.2700   -1.3105    0.0000 O   0  0  0  0  0  0  0  0  0  0  0  0
    0.1425   -2.0249    0.0000 C   0  0  0  0  0  0  0  0  0  0  0  0
    1.9839   -1.3105    0.0000 O   0  0  0  0  0  0  0  0  0  0  0  0
    2.6984   -0.8980    0.0000 C   0  0  0  0  0  0  0  0  0  0  0  0
    3.4128   -1.3105    0.0000 C   0  0  0  0  0  0  0  0  0  0  0  0
    4.1273   -0.8980    0.0000 C   0  0  0  0  0  0  0  0  0  0  0  0
    3.4128   -2.1355    0.0000 C   0  0  0  0  0  0  0  0  0  0  0  0
    2.6984   -0.0730    0.0000 O   0  0  0  0  0  0  0  0  0  0  0  0
  1  2  1  0  0  0  0
  3  2  1  0  0  0  0
  4  3  1  0  0  0  0
  2  4  1  0  0  0  0
  1  5  1  0  0  0  0
  5  6  1  0  0  0  0
  6  7  1  0  0  0  0
  7  8  2  0  0  0  0
  7  9  1  0  0  0  0
  6 10  2  0  0  0  0
M  END
> <ChemID>
100439

> <CAS>
106-91-2

> <Original_SMILES>
CC(=C)C(=O)OCC1CO1

> <preferred_name>
Glycidyl methacrylate

> <dsstox_substance_id>
DTXSID0025361

> <dsstox_compound_id>
DTXCID305361

> <qc_level>
DSSTox_Low

> <Canonical_QSARr>
CC(=C)C(=O)OCC1CO1

> <InChI_Code_QSARr>
InChI=1S/C7H10O3/c1-5(2)7(8)10-4-6-3-9-6/h6H,1,3-4H2,2H3

> <InChI Key_QSARr>
VOZRXNHHFUQHIL-UHFFFAOYSA-N

> <Salt_Solvent>


> <Salt_Solvent_ID>
0

> <MPID>
100449

> <Tr_1_Tst_0>
1

> <Ready_Biodeg>
1.0

$$$$
Row431
  Mrv171c012251911052D          

  4  3  0  0  0  0            999 V2000
    2.1020   -0.5628    0.0000 Br  0  0  0  0  0  0  0  0  0  0  0  0
    1.2770   -0.5628    0.0000 C   0  0  0  0  0  0  0  0  0  0  0  0
    0.8645    0.1517    0.0000 C   0  0  0  0  0  0  0  0  0  0  0  0
    0.0395    0.1517    0.0000 Br  0  0  0  0  0  0  0  0  0  0  0  0
  1  2  1  0  0  0  0
  2  3  1  0  0  0  0
  3  4  1  0  0  0  0
M  END
> <ChemID>
100440

> <CAS>
106-93-4

> <Original_SMILES>
BrCCBr

> <preferred_name>
1,2-Dibromoethane

> <dsstox_substance_id>
DTXSID3020415

> <dsstox_compound_id>
DTXCID10415

> <qc_level>
DSSTox_Low

> <Canonical_QSARr>
BrCCBr

> <InChI_Code_QSARr>
InChI=1S/C2H4Br2/c3-1-2-4/h1-2H2

> <InChI Key_QSARr>
PAAZPARNPHGIKF-UHFFFAOYSA-N

> <Salt_Solvent>


> <Salt_Solvent_ID>
0

> <MPID>
100450

> <Tr_1_Tst_0>
1

> <Ready_Biodeg>
0.0

$$$$
Row432
  Mrv171c012251911052D          

  4  3  0  0  0  0            999 V2000
    1.2793   -0.5633    0.0000 C   0  0  0  0  0  0  0  0  0  0  0  0
    2.1043   -0.5633    0.0000 C   0  0  0  0  0  0  0  0  0  0  0  0
    0.8668    0.1512    0.0000 C   0  0  0  0  0  0  0  0  0  0  0  0
    0.0418    0.1512    0.0000 C   0  0  0  0  0  0  0  0  0  0  0  0
  1  2  1  0  0  0  0
  1  3  1  0  0  0  0
  3  4  1  0  0  0  0
M  END
> <ChemID>
100441

> <CAS>
106-97-8

> <Original_SMILES>
CCCC

> <preferred_name>
Butane

> <dsstox_substance_id>
DTXSID7024665

> <dsstox_compound_id>
DTXCID404665

> <qc_level>
DSSTox_Low

> <Canonical_QSARr>
CCCC

> <InChI_Code_QSARr>
InChI=1S/C4H10/c1-3-4-2/h3-4H2,1-2H3

> <InChI Key_QSARr>
IJDNQMDRQITEOD-UHFFFAOYSA-N

> <Salt_Solvent>


> <Salt_Solvent_ID>
0

> <MPID>
100451

> <Tr_1_Tst_0>
0

> <Ready_Biodeg>
1.0

$$$$
Row433
  Mrv171c012251911052D          

  4  3  0  0  0  0            999 V2000
    2.1042   -0.5633    0.0000 C   0  0  0  0  0  0  0  0  0  0  0  0
    1.2792   -0.5633    0.0000 C   0  0  0  0  0  0  0  0  0  0  0  0
    0.8667    0.1512    0.0000 C   0  0  0  0  0  0  0  0  0  0  0  0
    0.0417    0.1512    0.0000 O   0  0  0  0  0  0  0  0  0  0  0  0
  1  2  2  0  0  0  0
  2  3  1  0  0  0  0
  3  4  2  0  0  0  0
M  END
> <ChemID>
100442

> <CAS>
107-02-8

> <Original_SMILES>
C=CC=O

> <preferred_name>
Acrolein

> <dsstox_substance_id>
DTXSID5020023

> <dsstox_compound_id>
DTXCID8023

> <qc_level>
DSSTox_Low

> <Canonical_QSARr>
C=CC=O

> <InChI_Code_QSARr>
InChI=1S/C3H4O/c1-2-3-4/h2-3H,1H2

> <InChI Key_QSARr>
HGINCPLSRVDWNT-UHFFFAOYSA-N

> <Salt_Solvent>


> <Salt_Solvent_ID>
0

> <MPID>
100452

> <Tr_1_Tst_0>
1

> <Ready_Biodeg>
0.0

$$$$
Row434
  Mrv171c012251911052D          

  4  3  0  0  0  0            999 V2000
    2.1042   -0.5633    0.0000 C   0  0  0  0  0  0  0  0  0  0  0  0
    1.2792   -0.5633    0.0000 C   0  0  0  0  0  0  0  0  0  0  0  0
    0.8667    0.1512    0.0000 C   0  0  0  0  0  0  0  0  0  0  0  0
    0.0417    0.1512    0.0000 Cl  0  0  0  0  0  0  0  0  0  0  0  0
  1  2  2  0  0  0  0
  2  3  1  0  0  0  0
  3  4  1  0  0  0  0
M  END
> <ChemID>
100443

> <CAS>
107-05-1

> <Original_SMILES>
C=CCCl

> <preferred_name>
Allyl chloride

> <dsstox_substance_id>
DTXSID4039231

> <dsstox_compound_id>
DTXCID4045

> <qc_level>
DSSTox_Low

> <Canonical_QSARr>
C=CCCl

> <InChI_Code_QSARr>
InChI=1S/C3H5Cl/c1-2-3-4/h2H,1,3H2

> <InChI Key_QSARr>
OSDWBNJEKMUWAV-UHFFFAOYSA-N

> <Salt_Solvent>


> <Salt_Solvent_ID>
0

> <MPID>
100453

> <Tr_1_Tst_0>
1

> <Ready_Biodeg>
1.0

$$$$
Row435
  Mrv171c012251911052D          

  4  3  0  0  0  0            999 V2000
    2.1020   -0.5628    0.0000 Cl  0  0  0  0  0  0  0  0  0  0  0  0
    1.2770   -0.5628    0.0000 C   0  0  0  0  0  0  0  0  0  0  0  0
    0.8645    0.1517    0.0000 C   0  0  0  0  0  0  0  0  0  0  0  0
    0.0395    0.1517    0.0000 Cl  0  0  0  0  0  0  0  0  0  0  0  0
  1  2  1  0  0  0  0
  2  3  1  0  0  0  0
  3  4  1  0  0  0  0
M  END
> <ChemID>
100444

> <CAS>
107-06-2

> <Original_SMILES>
ClCCCl

> <preferred_name>
1,2-Dichloroethane

> <dsstox_substance_id>
DTXSID6020438

> <dsstox_compound_id>
DTXCID40438

> <qc_level>
DSSTox_High

> <Canonical_QSARr>
ClCCCl

> <InChI_Code_QSARr>
InChI=1S/C2H4Cl2/c3-1-2-4/h1-2H2

> <InChI Key_QSARr>
WSLDOOZREJYCGB-UHFFFAOYSA-N

> <Salt_Solvent>


> <Salt_Solvent_ID>
0

> <MPID>
100454

> <Tr_1_Tst_0>
1

> <Ready_Biodeg>
0.0

$$$$
Row436
  Mrv171c012251911052D          

  4  3  0  0  0  0            999 V2000
    2.1020   -0.5628    0.0000 Cl  0  0  0  0  0  0  0  0  0  0  0  0
    1.2770   -0.5628    0.0000 C   0  0  0  0  0  0  0  0  0  0  0  0
    0.8645    0.1517    0.0000 C   0  0  0  0  0  0  0  0  0  0  0  0
    0.0395    0.1517    0.0000 O   0  0  0  0  0  0  0  0  0  0  0  0
  1  2  1  0  0  0  0
  2  3  1  0  0  0  0
  3  4  1  0  0  0  0
M  END
> <ChemID>
100445

> <CAS>
107-07-3

> <Original_SMILES>
OCCCl

> <preferred_name>
2-Chloroethanol

> <dsstox_substance_id>
DTXSID1021877

> <dsstox_compound_id>
DTXCID601877

> <qc_level>
DSSTox_Low

> <Canonical_QSARr>
OCCCl

> <InChI_Code_QSARr>
InChI=1S/C2H5ClO/c3-1-2-4/h4H,1-2H2

> <InChI Key_QSARr>
SZIFAVKTNFCBPC-UHFFFAOYSA-N

> <Salt_Solvent>


> <Salt_Solvent_ID>
0

> <MPID>
100455

> <Tr_1_Tst_0>
0

> <Ready_Biodeg>
1.0

$$$$
Row437
  Mrv171c012251911052D          

  4  3  0  0  0  0            999 V2000
    1.8563   -1.0711    0.0000 C   0  0  0  0  0  0  0  0  0  0  0  0
    1.4438   -0.3566    0.0000 C   0  0  0  0  0  0  0  0  0  0  0  0
    0.6188   -0.3566    0.0000 C   0  0  0  0  0  0  0  0  0  0  0  0
   -0.2062   -0.3566    0.0000 N   0  0  0  0  0  0  0  0  0  0  0  0
  1  2  2  0  0  0  0
  2  3  1  0  0  0  0
  3  4  3  0  0  0  0
M  END
> <ChemID>
100446

> <CAS>
107-13-1

> <Original_SMILES>
C=CC#N

> <preferred_name>
Acrylonitrile

> <dsstox_substance_id>
DTXSID5020029

> <dsstox_compound_id>
DTXCID0029

> <qc_level>
DSSTox_Low

> <Canonical_QSARr>
C=CC#N

> <InChI_Code_QSARr>
InChI=1S/C3H3N/c1-2-3-4/h2H,1H2

> <InChI Key_QSARr>
NLHHRLWOUZZQLW-UHFFFAOYSA-N

> <Salt_Solvent>


> <Salt_Solvent_ID>
0

> <MPID>
100456

> <Tr_1_Tst_0>
1

> <Ready_Biodeg>
1.0

$$$$
Row438
  Mrv171c012251911052D          

  4  3  0  0  0  0            999 V2000
    2.1020   -0.5628    0.0000 N   0  0  0  0  0  0  0  0  0  0  0  0
    1.2770   -0.5628    0.0000 C   0  0  0  0  0  0  0  0  0  0  0  0
    0.8645    0.1517    0.0000 C   0  0  0  0  0  0  0  0  0  0  0  0
    0.0395    0.1517    0.0000 N   0  0  0  0  0  0  0  0  0  0  0  0
  1  2  1  0  0  0  0
  2  3  1  0  0  0  0
  3  4  1  0  0  0  0
M  END
> <ChemID>
100447

> <CAS>
107-15-3

> <Original_SMILES>
NCCN

> <preferred_name>
Ethylenediamine

> <dsstox_substance_id>
DTXSID5021881

> <dsstox_compound_id>
DTXCID501881

> <qc_level>
DSSTox_Low

> <Canonical_QSARr>
NCCN

> <InChI_Code_QSARr>
InChI=1S/C2H8N2/c3-1-2-4/h1-4H2

> <InChI Key_QSARr>
PIICEJLVQHRZGT-UHFFFAOYSA-N

> <Salt_Solvent>


> <Salt_Solvent_ID>
0

> <MPID>
100457

> <Tr_1_Tst_0>
1

> <Ready_Biodeg>
1.0

$$$$
Row439
  Mrv171c012251911052D          

  4  3  0  0  0  0            999 V2000
    2.1042   -0.5633    0.0000 C   0  0  0  0  0  0  0  0  0  0  0  0
    1.2792   -0.5633    0.0000 C   0  0  0  0  0  0  0  0  0  0  0  0
    0.8667    0.1512    0.0000 C   0  0  0  0  0  0  0  0  0  0  0  0
    0.0417    0.1512    0.0000 O   0  0  0  0  0  0  0  0  0  0  0  0
  1  2  2  0  0  0  0
  2  3  1  0  0  0  0
  3  4  1  0  0  0  0
M  END
> <ChemID>
100448

> <CAS>
107-18-6

> <Original_SMILES>
C=CCO

> <preferred_name>
Allyl alcohol

> <dsstox_substance_id>
DTXSID8020044

> <dsstox_compound_id>
DTXCID2044

> <qc_level>
DSSTox_Low

> <Canonical_QSARr>
C=CCO

> <InChI_Code_QSARr>
InChI=1S/C3H6O/c1-2-3-4/h2,4H,1,3H2

> <InChI Key_QSARr>
XXROGKLTLUQVRX-UHFFFAOYSA-N

> <Salt_Solvent>


> <Salt_Solvent_ID>
0

> <MPID>
100458

> <Tr_1_Tst_0>
1

> <Ready_Biodeg>
1.0

$$$$
Row440
  Mrv171c012251911052D          

  4  3  0  0  0  0            999 V2000
    0.8250    0.0006    0.0000 C   0  0  0  0  0  0  0  0  0  0  0  0
    1.2375   -0.7138    0.0000 C   0  0  0  0  0  0  0  0  0  0  0  0
    1.6500   -1.4283    0.0000 C   0  0  0  0  0  0  0  0  0  0  0  0
    0.0000    0.0006    0.0000 O   0  0  0  0  0  0  0  0  0  0  0  0
  1  2  1  0  0  0  0
  2  3  3  0  0  0  0
  1  4  1  0  0  0  0
M  END
> <ChemID>
100449

> <CAS>
107-19-7

> <Original_SMILES>
C#CCO

> <preferred_name>
Propargyl alcohol

> <dsstox_substance_id>
DTXSID5021883

> <dsstox_compound_id>
DTXCID301883

> <qc_level>
DSSTox_Low

> <Canonical_QSARr>
C#CCO

> <InChI_Code_QSARr>
InChI=1S/C3H4O/c1-2-3-4/h1,4H,3H2

> <InChI Key_QSARr>
TVDSBUOJIPERQY-UHFFFAOYSA-N

> <Salt_Solvent>


> <Salt_Solvent_ID>
0

> <MPID>
100459

> <Tr_1_Tst_0>
0

> <Ready_Biodeg>
1.0

$$$$
Row441
  Mrv171c012251911052D          

  4  3  0  0  0  0            999 V2000
    1.2770   -0.5628    0.0000 C   0  0  0  0  0  0  0  0  0  0  0  0
    2.1020   -0.5628    0.0000 O   0  0  0  0  0  0  0  0  0  0  0  0
    0.8645    0.1517    0.0000 C   0  0  0  0  0  0  0  0  0  0  0  0
    0.0395    0.1517    0.0000 O   0  0  0  0  0  0  0  0  0  0  0  0
  1  2  1  0  0  0  0
  1  3  1  0  0  0  0
  3  4  1  0  0  0  0
M  END
> <ChemID>
100450

> <CAS>
107-21-1

> <Original_SMILES>
OCCO

> <preferred_name>
Ethylene glycol

> <dsstox_substance_id>
DTXSID8020597

> <dsstox_compound_id>
DTXCID40597

> <qc_level>
DSSTox_High

> <Canonical_QSARr>
OCCO

> <InChI_Code_QSARr>
InChI=1S/C2H6O2/c3-1-2-4/h3-4H,1-2H2

> <InChI Key_QSARr>
LYCAIKOWRPUZTN-UHFFFAOYSA-N

> <Salt_Solvent>


> <Salt_Solvent_ID>
0

> <MPID>
100460

> <Tr_1_Tst_0>
1

> <Ready_Biodeg>
1.0

$$$$
Row442
  Mrv171c012251911052D          

  4  3  0  0  0  0            999 V2000
    2.1020   -0.5628    0.0000 O   0  0  0  0  0  0  0  0  0  0  0  0
    1.2770   -0.5628    0.0000 C   0  0  0  0  0  0  0  0  0  0  0  0
    0.8645    0.1517    0.0000 C   0  0  0  0  0  0  0  0  0  0  0  0
    0.0395    0.1517    0.0000 O   0  0  0  0  0  0  0  0  0  0  0  0
  1  2  2  0  0  0  0
  2  3  1  0  0  0  0
  3  4  2  0  0  0  0
M  END
> <ChemID>
100451

> <CAS>
107-22-2

> <Original_SMILES>
O=CC=O

> <preferred_name>
Glyoxal

> <dsstox_substance_id>
DTXSID5025364

> <dsstox_compound_id>
DTXCID505364

> <qc_level>
DSSTox_Low

> <Canonical_QSARr>
O=CC=O

> <InChI_Code_QSARr>
InChI=1S/C2H2O2/c3-1-2-4/h1-2H

> <InChI Key_QSARr>
LEQAOMBKQFMDFZ-UHFFFAOYSA-N

> <Salt_Solvent>


> <Salt_Solvent_ID>
0

> <MPID>
100461

> <Tr_1_Tst_0>
1

> <Ready_Biodeg>
1.0

$$$$
Row443
  Mrv171c012251911052D          

  4  3  0  0  0  0            999 V2000
    2.1043   -0.5633    0.0000 Cl  0  0  0  0  0  0  0  0  0  0  0  0
    1.2793   -0.5633    0.0000 C   0  0  0  0  0  0  0  0  0  0  0  0
    0.8668    0.1512    0.0000 O   0  0  0  0  0  0  0  0  0  0  0  0
    0.0418    0.1512    0.0000 C   0  0  0  0  0  0  0  0  0  0  0  0
  1  2  1  0  0  0  0
  2  3  1  0  0  0  0
  3  4  1  0  0  0  0
M  END
> <ChemID>
100452

> <CAS>
107-30-2

> <Original_SMILES>
COCCl

> <preferred_name>
Chloromethyl methyl ether

> <dsstox_substance_id>
DTXSID6020307

> <dsstox_compound_id>
DTXCID40307

> <qc_level>
DSSTox_Low

> <Canonical_QSARr>
COCCl

> <InChI_Code_QSARr>
InChI=1S/C2H5ClO/c1-4-2-3/h2H2,1H3

> <InChI Key_QSARr>
XJUZRXYOEPSWMB-UHFFFAOYSA-N

> <Salt_Solvent>


> <Salt_Solvent_ID>
0

> <MPID>
100462

> <Tr_1_Tst_0>
1

> <Ready_Biodeg>
1.0

$$$$
Row444
  Mrv171c012251911052D          

  8  7  0  0  0  0            999 V2000
    1.1598   -2.3002    0.0000 O   0  0  0  0  0  0  0  0  0  0  0  0
    1.1598   -1.4752    0.0000 C   0  0  0  0  0  0  0  0  0  0  0  0
    0.4453   -1.0627    0.0000 C   0  0  0  0  0  0  0  0  0  0  0  0
    1.8743   -1.0627    0.0000 C   0  0  0  0  0  0  0  0  0  0  0  0
    1.8743   -0.2377    0.0000 C   0  0  0  0  0  0  0  0  0  0  0  0
    1.8743    0.5873    0.0000 O   0  0  0  0  0  0  0  0  0  0  0  0
    2.6993   -0.2377    0.0000 C   0  0  0  0  0  0  0  0  0  0  0  0
    1.0493   -0.2377    0.0000 C   0  0  0  0  0  0  0  0  0  0  0  0
  1  2  1  0  0  0  0
  2  3  1  0  0  0  0
  2  4  1  0  0  0  0
  4  5  1  0  0  0  0
  5  6  1  0  0  0  0
  5  7  1  0  0  0  0
  5  8  1  0  0  0  0
M  END
> <ChemID>
100453

> <CAS>
107-41-5

> <Original_SMILES>
CC(O)CC(C)(C)O

> <preferred_name>
2-Methyl-2,4-pentanediol

> <dsstox_substance_id>
DTXSID5021885

> <dsstox_compound_id>
DTXCID101885

> <qc_level>
DSSTox_Low

> <Canonical_QSARr>
CC(O)CC(C)(C)O

> <InChI_Code_QSARr>
InChI=1S/C6H14O2/c1-5(7)4-6(2,3)8/h5,7-8H,4H2,1-3H3

> <InChI Key_QSARr>
SVTBMSDMJJWYQN-UHFFFAOYSA-N

> <Salt_Solvent>


> <Salt_Solvent_ID>
0

> <MPID>
100463

> <Tr_1_Tst_0>
0

> <Ready_Biodeg>
1.0

$$$$
Row445
  Mrv171c012251911052D          

  6  5  0  0  0  0            999 V2000
    2.5114   -1.8472    0.0000 O   0  0  0  0  0  0  0  0  0  0  0  0
    2.0989   -1.1327    0.0000 C   0  0  0  0  0  0  0  0  0  0  0  0
    2.5114   -0.4182    0.0000 O   0  0  0  0  0  0  0  0  0  0  0  0
    1.2739   -1.1327    0.0000 C   0  0  0  0  0  0  0  0  0  0  0  0
    0.8614   -0.4182    0.0000 C   0  0  0  0  0  0  0  0  0  0  0  0
    0.0364   -0.4182    0.0000 C   0  0  0  0  0  0  0  0  0  0  0  0
  1  2  1  0  0  0  0
  2  3  2  0  0  0  0
  2  4  1  0  0  0  0
  4  5  1  0  0  0  0
  5  6  1  0  0  0  0
M  END
> <ChemID>
100454

> <CAS>
107-92-6

> <Original_SMILES>
CCCC(O)=O

> <preferred_name>
Butanoic acid

> <dsstox_substance_id>
DTXSID8021515

> <dsstox_compound_id>
DTXCID401515

> <qc_level>
DSSTox_Low

> <Canonical_QSARr>
CCCC(O)=O

> <InChI_Code_QSARr>
InChI=1S/C4H8O2/c1-2-3-4(5)6/h2-3H2,1H3,(H,5,6)

> <InChI Key_QSARr>
FERIUCNNQQJTOY-UHFFFAOYSA-N

> <Salt_Solvent>


> <Salt_Solvent_ID>
0

> <MPID>
100464

> <Tr_1_Tst_0>
1

> <Ready_Biodeg>
1.0

$$$$
Row446
  Mrv171c012251911052D          

  6  5  0  0  0  0            999 V2000
    2.5119   -1.8448    0.0000 O   0  0  0  0  0  0  0  0  0  0  0  0
    2.0994   -1.1303    0.0000 C   0  0  0  0  0  0  0  0  0  0  0  0
    2.5119   -0.4159    0.0000 C   0  0  0  0  0  0  0  0  0  0  0  0
    1.2744   -1.1303    0.0000 C   0  0  0  0  0  0  0  0  0  0  0  0
    0.8619   -0.4159    0.0000 O   0  0  0  0  0  0  0  0  0  0  0  0
    0.0369   -0.4159    0.0000 C   0  0  0  0  0  0  0  0  0  0  0  0
  1  2  1  0  0  0  0
  2  3  1  0  0  0  0
  2  4  1  0  0  0  0
  4  5  1  0  0  0  0
  5  6  1  0  0  0  0
M  END
> <ChemID>
100455

> <CAS>
107-98-2

> <Original_SMILES>
COCC(C)O

> <preferred_name>
1-Methoxy-2-propanol

> <dsstox_substance_id>
DTXSID8024284

> <dsstox_compound_id>
DTXCID804284

> <qc_level>
DSSTox_Low

> <Canonical_QSARr>
COCC(C)O

> <InChI_Code_QSARr>
InChI=1S/C4H10O2/c1-4(5)3-6-2/h4-5H,3H2,1-2H3

> <InChI Key_QSARr>
ARXJGSRGQADJSQ-UHFFFAOYSA-N

> <Salt_Solvent>


> <Salt_Solvent_ID>
0

> <MPID>
100465

> <Tr_1_Tst_0>
1

> <Ready_Biodeg>
1.0

$$$$
Row447
  Mrv171c012251911052D          

  6  5  0  0  0  0            999 V2000
    2.5115   -1.8472    0.0000 C   0  0  0  0  0  0  0  0  0  0  0  0
    2.0990   -1.1327    0.0000 N   0  0  0  0  0  0  0  0  0  0  0  0
    2.5115   -0.4182    0.0000 C   0  0  0  0  0  0  0  0  0  0  0  0
    1.2740   -1.1327    0.0000 C   0  0  0  0  0  0  0  0  0  0  0  0
    0.8615   -0.4182    0.0000 C   0  0  0  0  0  0  0  0  0  0  0  0
    0.0365   -0.4182    0.0000 O   0  0  0  0  0  0  0  0  0  0  0  0
  1  2  1  0  0  0  0
  2  3  1  0  0  0  0
  2  4  1  0  0  0  0
  4  5  1  0  0  0  0
  5  6  1  0  0  0  0
M  END
> <ChemID>
100456

> <CAS>
108-01-0

> <Original_SMILES>
CN(C)CCO

> <preferred_name>
Dimethylaminoethanol

> <dsstox_substance_id>
DTXSID2020505

> <dsstox_compound_id>
DTXCID00505

> <qc_level>
DSSTox_Low

> <Canonical_QSARr>
CN(C)CCO

> <InChI_Code_QSARr>
InChI=1S/C4H11NO/c1-5(2)3-4-6/h6H,3-4H2,1-2H3

> <InChI Key_QSARr>
UEEJHVSXFDXPFK-UHFFFAOYSA-N

> <Salt_Solvent>


> <Salt_Solvent_ID>
0

> <MPID>
100466

> <Tr_1_Tst_0>
1

> <Ready_Biodeg>
1.0

$$$$
Row448
  Mrv171c012251911052D          

  6  5  0  0  0  0            999 V2000
    1.8927    0.4153    0.0000 C   0  0  0  0  0  0  0  0  0  0  0  0
    1.4802   -0.2991    0.0000 C   0  0  0  0  0  0  0  0  0  0  0  0
    1.8927   -1.0136    0.0000 O   0  0  0  0  0  0  0  0  0  0  0  0
    1.4802   -1.7281    0.0000 C   0  0  0  0  0  0  0  0  0  0  0  0
    1.8927   -2.4425    0.0000 C   0  0  0  0  0  0  0  0  0  0  0  0
    0.6552   -0.2991    0.0000 O   0  0  0  0  0  0  0  0  0  0  0  0
  1  2  1  0  0  0  0
  2  3  1  0  0  0  0
  3  4  1  0  0  0  0
  4  5  2  0  0  0  0
  2  6  2  0  0  0  0
M  END
> <ChemID>
100457

> <CAS>
108-05-4

> <Original_SMILES>
CC(=O)OC=C

> <preferred_name>
Vinyl acetate

> <dsstox_substance_id>
DTXSID3021431

> <dsstox_compound_id>
DTXCID201431

> <qc_level>
DSSTox_Low

> <Canonical_QSARr>
CC(=O)OC=C

> <InChI_Code_QSARr>
InChI=1S/C4H6O2/c1-3-6-4(2)5/h3H,1H2,2H3

> <InChI Key_QSARr>
XTXRWKRVRITETP-UHFFFAOYSA-N

> <Salt_Solvent>


> <Salt_Solvent_ID>
0

> <MPID>
100467

> <Tr_1_Tst_0>
0

> <Ready_Biodeg>
1.0

$$$$
Row449
  Mrv171c012251911052D          

  7  6  0  0  0  0            999 V2000
    1.9012    0.6622    0.0000 C   0  0  0  0  0  0  0  0  0  0  0  0
    1.4887   -0.0523    0.0000 C   0  0  0  0  0  0  0  0  0  0  0  0
    1.9012   -0.7668    0.0000 C   0  0  0  0  0  0  0  0  0  0  0  0
    1.4887   -1.4813    0.0000 C   0  0  0  0  0  0  0  0  0  0  0  0
    1.9012   -2.1957    0.0000 C   0  0  0  0  0  0  0  0  0  0  0  0
    0.6637   -1.4813    0.0000 C   0  0  0  0  0  0  0  0  0  0  0  0
    0.6637   -0.0523    0.0000 O   0  0  0  0  0  0  0  0  0  0  0  0
  1  2  1  0  0  0  0
  2  3  1  0  0  0  0
  3  4  1  0  0  0  0
  4  5  1  0  0  0  0
  4  6  1  0  0  0  0
  2  7  2  0  0  0  0
M  END
> <ChemID>
100458

> <CAS>
108-10-1

> <Original_SMILES>
CC(C)CC(C)=O

> <preferred_name>
4-Methyl-2-pentanone

> <dsstox_substance_id>
DTXSID5021889

> <dsstox_compound_id>
DTXCID701889

> <qc_level>
DSSTox_Low

> <Canonical_QSARr>
CC(C)CC(C)=O

> <InChI_Code_QSARr>
InChI=1S/C6H12O/c1-5(2)4-6(3)7/h5H,4H2,1-3H3

> <InChI Key_QSARr>
NTIZESTWPVYFNL-UHFFFAOYSA-N

> <Salt_Solvent>


> <Salt_Solvent_ID>
0

> <MPID>
100468

> <Tr_1_Tst_0>
1

> <Ready_Biodeg>
1.0

$$$$
Row450
  Mrv171c012251911052D          

  7  6  0  0  0  0            999 V2000
    1.9037    0.9592    0.0000 C   0  0  0  0  0  0  0  0  0  0  0  0
    1.4912    0.2447    0.0000 C   0  0  0  0  0  0  0  0  0  0  0  0
    0.6662    0.2447    0.0000 O   0  0  0  0  0  0  0  0  0  0  0  0
    1.9037   -0.4698    0.0000 C   0  0  0  0  0  0  0  0  0  0  0  0
    1.4912   -1.1843    0.0000 C   0  0  0  0  0  0  0  0  0  0  0  0
    1.9037   -1.8987    0.0000 C   0  0  0  0  0  0  0  0  0  0  0  0
    0.6662   -1.1843    0.0000 C   0  0  0  0  0  0  0  0  0  0  0  0
  1  2  1  0  0  0  0
  2  3  1  0  0  0  0
  2  4  1  0  0  0  0
  4  5  1  0  0  0  0
  5  6  1  0  0  0  0
  5  7  1  0  0  0  0
M  END
> <ChemID>
100459

> <CAS>
108-11-2

> <Original_SMILES>
CC(C)CC(C)O

> <preferred_name>
4-Methyl-2-pentanol

> <dsstox_substance_id>
DTXSID2026781

> <dsstox_compound_id>
DTXCID806781

> <qc_level>
DSSTox_Low

> <Canonical_QSARr>
CC(C)CC(C)O

> <InChI_Code_QSARr>
InChI=1S/C6H14O/c1-5(2)4-6(3)7/h5-7H,4H2,1-3H3

> <InChI Key_QSARr>
WVYWICLMDOOCFB-UHFFFAOYSA-N

> <Salt_Solvent>


> <Salt_Solvent_ID>
0

> <MPID>
100469

> <Tr_1_Tst_0>
1

> <Ready_Biodeg>
1.0

$$$$
Row451
  Mrv171c012251911052D          

  7  6  0  0  0  0            999 V2000
    1.9012    0.6622    0.0000 C   0  0  0  0  0  0  0  0  0  0  0  0
    1.4887   -0.0523    0.0000 C   0  0  0  0  0  0  0  0  0  0  0  0
    1.9012   -0.7668    0.0000 O   0  0  0  0  0  0  0  0  0  0  0  0
    1.4887   -1.4812    0.0000 C   0  0  0  0  0  0  0  0  0  0  0  0
    1.9012   -2.1957    0.0000 C   0  0  0  0  0  0  0  0  0  0  0  0
    0.6637   -1.4812    0.0000 C   0  0  0  0  0  0  0  0  0  0  0  0
    0.6637   -0.0523    0.0000 C   0  0  0  0  0  0  0  0  0  0  0  0
  1  2  1  0  0  0  0
  2  3  1  0  0  0  0
  3  4  1  0  0  0  0
  4  5  1  0  0  0  0
  4  6  1  0  0  0  0
  2  7  1  0  0  0  0
M  END
> <ChemID>
100460

> <CAS>
108-20-3

> <Original_SMILES>
CC(C)OC(C)C

> <preferred_name>
Isopropyl ether

> <dsstox_substance_id>
DTXSID4021890

> <dsstox_compound_id>
DTXCID401890

> <qc_level>
DSSTox_Low

> <Canonical_QSARr>
CC(C)OC(C)C

> <InChI_Code_QSARr>
InChI=1S/C6H14O/c1-5(2)7-6(3)4/h5-6H,1-4H3

> <InChI Key_QSARr>
ZAFNJMIOTHYJRJ-UHFFFAOYSA-N

> <Salt_Solvent>


> <Salt_Solvent_ID>
0

> <MPID>
100470

> <Tr_1_Tst_0>
1

> <Ready_Biodeg>
0.0

$$$$
Row452
  Mrv171c012251911052D          

  7  6  0  0  0  0            999 V2000
    1.9012   -0.7668    0.0000 O   0  0  0  0  0  0  0  0  0  0  0  0
    1.4887   -0.0523    0.0000 C   0  0  0  0  0  0  0  0  0  0  0  0
    1.9012    0.6622    0.0000 O   0  0  0  0  0  0  0  0  0  0  0  0
    0.6637   -0.0523    0.0000 C   0  0  0  0  0  0  0  0  0  0  0  0
    1.4887   -1.4813    0.0000 C   0  0  0  0  0  0  0  0  0  0  0  0
    1.9012   -2.1957    0.0000 C   0  0  0  0  0  0  0  0  0  0  0  0
    0.6637   -1.4813    0.0000 C   0  0  0  0  0  0  0  0  0  0  0  0
  1  2  1  0  0  0  0
  2  3  2  0  0  0  0
  2  4  1  0  0  0  0
  1  5  1  0  0  0  0
  5  6  1  0  0  0  0
  5  7  1  0  0  0  0
M  END
> <ChemID>
100461

> <CAS>
108-21-4

> <Original_SMILES>
CC(C)OC(C)=O

> <preferred_name>
Isopropyl acetate

> <dsstox_substance_id>
DTXSID2025478

> <dsstox_compound_id>
DTXCID605478

> <qc_level>
DSSTox_Low

> <Canonical_QSARr>
CC(C)OC(C)=O

> <InChI_Code_QSARr>
InChI=1S/C5H10O2/c1-4(2)7-5(3)6/h4H,1-3H3

> <InChI Key_QSARr>
JMMWKPVZQRWMSS-UHFFFAOYSA-N

> <Salt_Solvent>


> <Salt_Solvent_ID>
0

> <MPID>
100471

> <Tr_1_Tst_0>
0

> <Ready_Biodeg>
1.0

$$$$
Row453
  Mrv171c012251911052D          

  7  7  0  0  0  0            999 V2000
    2.0132   -0.3926    0.0000 O   0  0  0  0  0  0  0  0  0  0  0  0
    1.3457    0.0924    0.0000 C   0  0  0  0  0  0  0  0  0  0  0  0
    1.3457    0.9174    0.0000 O   0  0  0  0  0  0  0  0  0  0  0  0
    0.6783   -0.3926    0.0000 C   0  0  0  0  0  0  0  0  0  0  0  0
    0.9332   -1.1772    0.0000 C   0  0  0  0  0  0  0  0  0  0  0  0
    1.7582   -1.1772    0.0000 C   0  0  0  0  0  0  0  0  0  0  0  0
    2.2431   -1.8446    0.0000 O   0  0  0  0  0  0  0  0  0  0  0  0
  2  1  1  0  0  0  0
  2  3  2  0  0  0  0
  4  2  1  0  0  0  0
  5  4  2  0  0  0  0
  6  5  1  0  0  0  0
  1  6  1  0  0  0  0
  6  7  2  0  0  0  0
M  END
> <ChemID>
100462

> <CAS>
108-31-6

> <Original_SMILES>
O=C1C=CC(=O)O1

> <preferred_name>
2,5-Furandione

> <dsstox_substance_id>
DTXSID7024166

> <dsstox_compound_id>
DTXCID804166

> <qc_level>
DSSTox_Low

> <Canonical_QSARr>
O=C1C=CC(=O)O1

> <InChI_Code_QSARr>
InChI=1S/C4H2O3/c5-3-1-2-4(6)7-3/h1-2H

> <InChI Key_QSARr>
FPYJFEHAWHCUMM-UHFFFAOYSA-N

> <Salt_Solvent>


> <Salt_Solvent_ID>
0

> <MPID>
100472

> <Tr_1_Tst_0>
1

> <Ready_Biodeg>
1.0

$$$$
Row454
  Mrv171c012251911052D          

  8  8  0  0  0  0            999 V2000
    1.7055   -3.2018    0.0000 C   0  0  0  0  0  0  0  0  0  0  0  0
    2.4199   -2.7893    0.0000 C   0  0  0  0  0  0  0  0  0  0  0  0
    2.4199   -1.9643    0.0000 C   0  0  0  0  0  0  0  0  0  0  0  0
    1.7055   -1.5518    0.0000 C   0  0  0  0  0  0  0  0  0  0  0  0
    1.7055   -0.7268    0.0000 C   0  0  0  0  0  0  0  0  0  0  0  0
    0.9910   -1.9643    0.0000 C   0  0  0  0  0  0  0  0  0  0  0  0
    0.9910   -2.7893    0.0000 C   0  0  0  0  0  0  0  0  0  0  0  0
    0.2765   -3.2018    0.0000 C   0  0  0  0  0  0  0  0  0  0  0  0
  2  1  2  0  0  0  0
  3  2  1  0  0  0  0
  4  3  2  0  0  0  0
  4  5  1  0  0  0  0
  6  4  1  0  0  0  0
  7  6  2  0  0  0  0
  1  7  1  0  0  0  0
  7  8  1  0  0  0  0
M  END
> <ChemID>
100463

> <CAS>
108-38-3

> <Original_SMILES>
Cc1cc(C)ccc1

> <preferred_name>
m-Xylene

> <dsstox_substance_id>
DTXSID6026298

> <dsstox_compound_id>
DTXCID501446

> <qc_level>
DSSTox_Low

> <Canonical_QSARr>
CC1=CC(C)=CC=C1

> <InChI_Code_QSARr>
InChI=1S/C8H10/c1-7-4-3-5-8(2)6-7/h3-6H,1-2H3

> <InChI Key_QSARr>
IVSZLXZYQVIEFR-UHFFFAOYSA-N

> <Salt_Solvent>


> <Salt_Solvent_ID>
0

> <MPID>
100473

> <Tr_1_Tst_0>
1

> <Ready_Biodeg>
1.0

$$$$
Row455
  Mrv171c012251911052D          

  8  8  0  0  0  0            999 V2000
    1.4204   -1.2373    0.0000 C   0  0  0  0  0  0  0  0  0  0  0  0
    0.7059   -0.8248    0.0000 C   0  0  0  0  0  0  0  0  0  0  0  0
    0.7059    0.0002    0.0000 C   0  0  0  0  0  0  0  0  0  0  0  0
   -0.0085   -1.2373    0.0000 C   0  0  0  0  0  0  0  0  0  0  0  0
   -0.0085   -2.0623    0.0000 C   0  0  0  0  0  0  0  0  0  0  0  0
    0.7059   -2.4748    0.0000 C   0  0  0  0  0  0  0  0  0  0  0  0
    1.4204   -2.0623    0.0000 C   0  0  0  0  0  0  0  0  0  0  0  0
    2.1349   -2.4748    0.0000 O   0  0  0  0  0  0  0  0  0  0  0  0
  2  1  2  0  0  0  0
  2  3  1  0  0  0  0
  4  2  1  0  0  0  0
  5  4  2  0  0  0  0
  6  5  1  0  0  0  0
  7  6  2  0  0  0  0
  1  7  1  0  0  0  0
  7  8  1  0  0  0  0
M  END
> <ChemID>
100464

> <CAS>
108-39-4

> <Original_SMILES>
Cc1cc(O)ccc1

> <preferred_name>
m-Cresol

> <dsstox_substance_id>
DTXSID6024200

> <dsstox_compound_id>
DTXCID804200

> <qc_level>
DSSTox_Low

> <Canonical_QSARr>
CC1=CC(O)=CC=C1

> <InChI_Code_QSARr>
InChI=1S/C7H8O/c1-6-3-2-4-7(8)5-6/h2-5,8H,1H3

> <InChI Key_QSARr>
RLSSMJSEOOYNOY-UHFFFAOYSA-N

> <Salt_Solvent>


> <Salt_Solvent_ID>
0

> <MPID>
100474

> <Tr_1_Tst_0>
1

> <Ready_Biodeg>
1.0

$$$$
Row456
  Mrv171c012251911052D          

  8  8  0  0  0  0            999 V2000
    2.6801   -1.9594    0.0000 Cl  0  0  0  0  0  0  0  0  0  0  0  0
    1.9657   -1.5469    0.0000 C   0  0  0  0  0  0  0  0  0  0  0  0
    1.9657   -0.7219    0.0000 C   0  0  0  0  0  0  0  0  0  0  0  0
    1.2512   -0.3094    0.0000 C   0  0  0  0  0  0  0  0  0  0  0  0
    1.2512    0.5156    0.0000 N   0  0  0  0  0  0  0  0  0  0  0  0
    0.5367   -0.7219    0.0000 C   0  0  0  0  0  0  0  0  0  0  0  0
    0.5367   -1.5469    0.0000 C   0  0  0  0  0  0  0  0  0  0  0  0
    1.2512   -1.9594    0.0000 C   0  0  0  0  0  0  0  0  0  0  0  0
  1  2  1  0  0  0  0
  3  2  1  0  0  0  0
  4  3  2  0  0  0  0
  4  5  1  0  0  0  0
  6  4  1  0  0  0  0
  7  6  2  0  0  0  0
  8  7  1  0  0  0  0
  2  8  2  0  0  0  0
M  END
> <ChemID>
100465

> <CAS>
108-42-9

> <Original_SMILES>
Nc1cc(Cl)ccc1

> <preferred_name>
3-Chloroaniline

> <dsstox_substance_id>
DTXSID0024761

> <dsstox_compound_id>
DTXCID004761

> <qc_level>
DSSTox_Low

> <Canonical_QSARr>
NC1=CC(Cl)=CC=C1

> <InChI_Code_QSARr>
InChI=1S/C6H6ClN/c7-5-2-1-3-6(8)4-5/h1-4H,8H2

> <InChI Key_QSARr>
PNPCRKVUWYDDST-UHFFFAOYSA-N

> <Salt_Solvent>


> <Salt_Solvent_ID>
0

> <MPID>
100475

> <Tr_1_Tst_0>
0

> <Ready_Biodeg>
0.0

$$$$
Row457
  Mrv171c012251911052D          

  8  8  0  0  0  0            999 V2000
    2.6801   -1.9594    0.0000 Cl  0  0  0  0  0  0  0  0  0  0  0  0
    1.9657   -1.5469    0.0000 C   0  0  0  0  0  0  0  0  0  0  0  0
    1.9657   -0.7219    0.0000 C   0  0  0  0  0  0  0  0  0  0  0  0
    1.2512   -0.3094    0.0000 C   0  0  0  0  0  0  0  0  0  0  0  0
    1.2512    0.5156    0.0000 O   0  0  0  0  0  0  0  0  0  0  0  0
    0.5367   -0.7219    0.0000 C   0  0  0  0  0  0  0  0  0  0  0  0
    0.5367   -1.5469    0.0000 C   0  0  0  0  0  0  0  0  0  0  0  0
    1.2512   -1.9594    0.0000 C   0  0  0  0  0  0  0  0  0  0  0  0
  1  2  1  0  0  0  0
  3  2  1  0  0  0  0
  4  3  2  0  0  0  0
  4  5  1  0  0  0  0
  6  4  1  0  0  0  0
  7  6  2  0  0  0  0
  8  7  1  0  0  0  0
  2  8  2  0  0  0  0
M  END
> <ChemID>
100466

> <CAS>
108-43-0

> <Original_SMILES>
Oc1cc(Cl)ccc1

> <preferred_name>
3-Chlorophenol

> <dsstox_substance_id>
DTXSID4024800

> <dsstox_compound_id>
DTXCID004800

> <qc_level>
DSSTox_Low

> <Canonical_QSARr>
OC1=CC(Cl)=CC=C1

> <InChI_Code_QSARr>
InChI=1S/C6H5ClO/c7-5-2-1-3-6(8)4-5/h1-4,8H

> <InChI Key_QSARr>
HORNXRXVQWOLPJ-UHFFFAOYSA-N

> <Salt_Solvent>


> <Salt_Solvent_ID>
0

> <MPID>
100476

> <Tr_1_Tst_0>
1

> <Ready_Biodeg>
0.0

$$$$
Row458
  Mrv171c012251911052D          

  8  8  0  0  0  0            999 V2000
    1.7888   -2.0612    0.0000 C   0  0  0  0  0  0  0  0  0  0  0  0
    2.5033   -2.4737    0.0000 N   0  0  0  0  0  0  0  0  0  0  0  0
    1.7888   -1.2362    0.0000 C   0  0  0  0  0  0  0  0  0  0  0  0
    1.0743   -0.8237    0.0000 C   0  0  0  0  0  0  0  0  0  0  0  0
    1.0743    0.0013    0.0000 C   0  0  0  0  0  0  0  0  0  0  0  0
    0.3599   -1.2362    0.0000 C   0  0  0  0  0  0  0  0  0  0  0  0
    0.3599   -2.0612    0.0000 C   0  0  0  0  0  0  0  0  0  0  0  0
    1.0743   -2.4737    0.0000 C   0  0  0  0  0  0  0  0  0  0  0  0
  1  2  1  0  0  0  0
  3  1  1  0  0  0  0
  4  3  2  0  0  0  0
  4  5  1  0  0  0  0
  6  4  1  0  0  0  0
  7  6  2  0  0  0  0
  8  7  1  0  0  0  0
  1  8  2  0  0  0  0
M  END
> <ChemID>
100467

> <CAS>
108-44-1

> <Original_SMILES>
Cc1cc(N)ccc1

> <preferred_name>
3-Methylaniline

> <dsstox_substance_id>
DTXSID1026792

> <dsstox_compound_id>
DTXCID506792

> <qc_level>
DSSTox_Low

> <Canonical_QSARr>
CC1=CC(N)=CC=C1

> <InChI_Code_QSARr>
InChI=1S/C7H9N/c1-6-3-2-4-7(8)5-6/h2-5H,8H2,1H3

> <InChI Key_QSARr>
JJYPMNFTHPTTDI-UHFFFAOYSA-N

> <Salt_Solvent>


> <Salt_Solvent_ID>
0

> <MPID>
100477

> <Tr_1_Tst_0>
1

> <Ready_Biodeg>
0.0

$$$$
Row459
  Mrv171c012251911052D          

  8  8  0  0  0  0            999 V2000
    0.1795   -1.9594    0.0000 N   0  0  0  0  0  0  0  0  0  0  0  0
    0.8940   -1.5469    0.0000 C   0  0  0  0  0  0  0  0  0  0  0  0
    1.6084   -1.9594    0.0000 C   0  0  0  0  0  0  0  0  0  0  0  0
    2.3229   -1.5469    0.0000 C   0  0  0  0  0  0  0  0  0  0  0  0
    2.3229   -0.7219    0.0000 C   0  0  0  0  0  0  0  0  0  0  0  0
    1.6084   -0.3094    0.0000 C   0  0  0  0  0  0  0  0  0  0  0  0
    1.6084    0.5156    0.0000 N   0  0  0  0  0  0  0  0  0  0  0  0
    0.8940   -0.7219    0.0000 C   0  0  0  0  0  0  0  0  0  0  0  0
  1  2  1  0  0  0  0
  3  2  1  0  0  0  0
  4  3  2  0  0  0  0
  5  4  1  0  0  0  0
  6  5  2  0  0  0  0
  6  7  1  0  0  0  0
  8  6  1  0  0  0  0
  2  8  2  0  0  0  0
M  END
> <ChemID>
100468

> <CAS>
108-45-2

> <Original_SMILES>
Nc1cc(N)ccc1

> <preferred_name>
1,3-Benzenediamine

> <dsstox_substance_id>
DTXSID4021137

> <dsstox_compound_id>
DTXCID001137

> <qc_level>
DSSTox_Low

> <Canonical_QSARr>
NC1=CC(N)=CC=C1

> <InChI_Code_QSARr>
InChI=1S/C6H8N2/c7-5-2-1-3-6(8)4-5/h1-4H,7-8H2

> <InChI Key_QSARr>
WZCQRUWWHSTZEM-UHFFFAOYSA-N

> <Salt_Solvent>


> <Salt_Solvent_ID>
0

> <MPID>
100478

> <Tr_1_Tst_0>
1

> <Ready_Biodeg>
0.0

$$$$
Row460
  Mrv171c012251911052D          

  8  8  0  0  0  0            999 V2000
    0.1795   -1.9594    0.0000 O   0  0  0  0  0  0  0  0  0  0  0  0
    0.8940   -1.5469    0.0000 C   0  0  0  0  0  0  0  0  0  0  0  0
    1.6084   -1.9594    0.0000 C   0  0  0  0  0  0  0  0  0  0  0  0
    2.3229   -1.5469    0.0000 C   0  0  0  0  0  0  0  0  0  0  0  0
    2.3229   -0.7219    0.0000 C   0  0  0  0  0  0  0  0  0  0  0  0
    1.6084   -0.3094    0.0000 C   0  0  0  0  0  0  0  0  0  0  0  0
    1.6084    0.5156    0.0000 O   0  0  0  0  0  0  0  0  0  0  0  0
    0.8940   -0.7219    0.0000 C   0  0  0  0  0  0  0  0  0  0  0  0
  1  2  1  0  0  0  0
  3  2  1  0  0  0  0
  4  3  2  0  0  0  0
  5  4  1  0  0  0  0
  6  5  2  0  0  0  0
  6  7  1  0  0  0  0
  8  6  1  0  0  0  0
  2  8  2  0  0  0  0
M  END
> <ChemID>
100469

> <CAS>
108-46-3

> <Original_SMILES>
Oc1cc(O)ccc1

> <preferred_name>
Resorcinol

> <dsstox_substance_id>
DTXSID2021238

> <dsstox_compound_id>
DTXCID601238

> <qc_level>
DSSTox_Low

> <Canonical_QSARr>
OC1=CC(O)=CC=C1

> <InChI_Code_QSARr>
InChI=1S/C6H6O2/c7-5-2-1-3-6(8)4-5/h1-4,7-8H

> <InChI Key_QSARr>
GHMLBKRAJCXXBS-UHFFFAOYSA-N

> <Salt_Solvent>


> <Salt_Solvent_ID>
0

> <MPID>
100479

> <Tr_1_Tst_0>
0

> <Ready_Biodeg>
1.0

$$$$
Row461
  Mrv171c012251911052D          

  8  8  0  0  0  0            999 V2000
    1.7881   -1.2413    0.0000 N   0  0  0  0  0  0  0  0  0  0  0  0
    1.0736   -0.8287    0.0000 C   0  0  0  0  0  0  0  0  0  0  0  0
    1.0736   -0.0037    0.0000 C   0  0  0  0  0  0  0  0  0  0  0  0
    0.3592   -1.2412    0.0000 C   0  0  0  0  0  0  0  0  0  0  0  0
    0.3592   -2.0662    0.0000 C   0  0  0  0  0  0  0  0  0  0  0  0
   -0.3553   -2.4787    0.0000 C   0  0  0  0  0  0  0  0  0  0  0  0
    1.0736   -2.4788    0.0000 C   0  0  0  0  0  0  0  0  0  0  0  0
    1.7881   -2.0663    0.0000 C   0  0  0  0  0  0  0  0  0  0  0  0
  2  1  1  0  0  0  0
  2  3  1  0  0  0  0
  4  2  2  0  0  0  0
  5  4  1  0  0  0  0
  5  6  1  0  0  0  0
  7  5  2  0  0  0  0
  8  7  1  0  0  0  0
  1  8  2  0  0  0  0
M  END
> <ChemID>
100470

> <CAS>
108-47-4

> <Original_SMILES>
Cc1cc(C)[n]cc1

> <preferred_name>
2,4-Dimethylpyridine

> <dsstox_substance_id>
DTXSID2051556

> <dsstox_compound_id>
DTXCID6030108

> <qc_level>
DSSTox_High

> <Canonical_QSARr>
CC1C=C(C)N=CC=1

> <InChI_Code_QSARr>
InChI=1S/C7H9N/c1-6-3-4-8-7(2)5-6/h3-5H,1-2H3

> <InChI Key_QSARr>
JYYNAJVZFGKDEQ-UHFFFAOYSA-N

> <Salt_Solvent>


> <Salt_Solvent_ID>
0

> <MPID>
100480

> <Tr_1_Tst_0>
1

> <Ready_Biodeg>
1.0

$$$$
Row462
  Mrv171c012251911052D          

 10 10  0  0  0  0            999 V2000
    0.2143   -0.5775    0.0000 C   0  0  0  0  0  0  0  0  0  0  0  0
    0.9288   -0.9900    0.0000 C   0  0  0  0  0  0  0  0  0  0  0  0
    0.9288   -1.8150    0.0000 C   0  0  0  0  0  0  0  0  0  0  0  0
    0.2143    0.2475    0.0000 C   0  0  0  0  0  0  0  0  0  0  0  0
   -0.5001    0.6600    0.0000 C   0  0  0  0  0  0  0  0  0  0  0  0
   -0.5001    1.4850    0.0000 C   0  0  0  0  0  0  0  0  0  0  0  0
   -1.2146    1.8975    0.0000 C   0  0  0  0  0  0  0  0  0  0  0  0
   -1.2146    0.2475    0.0000 C   0  0  0  0  0  0  0  0  0  0  0  0
   -1.2146   -0.5775    0.0000 C   0  0  0  0  0  0  0  0  0  0  0  0
   -0.5001   -0.9900    0.0000 C   0  0  0  0  0  0  0  0  0  0  0  0
  1  2  1  0  0  0  0
  2  3  2  0  0  0  0
  4  1  1  0  0  0  0
  5  4  2  0  0  0  0
  5  6  1  0  0  0  0
  6  7  2  0  0  0  0
  8  5  1  0  0  0  0
  9  8  2  0  0  0  0
 10  9  1  0  0  0  0
  1 10  2  0  0  0  0
M  END
> <ChemID>
100471

> <CAS>
108-57-6

> <Original_SMILES>
C=Cc1cc(ccc1)C=C

> <preferred_name>
1,3-Diethenylbenzene

> <dsstox_substance_id>
DTXSID30110020

> <dsstox_compound_id>
DTXCID108939

> <qc_level>
DSSTox_High

> <Canonical_QSARr>
C=CC1C=C(C=CC=1)C=C

> <InChI_Code_QSARr>
InChI=1S/C10H10/c1-3-9-6-5-7-10(4-2)8-9/h3-8H,1-2H2

> <InChI Key_QSARr>
PRJNEUBECVAVAG-UHFFFAOYSA-N

> <Salt_Solvent>


> <Salt_Solvent_ID>
0

> <MPID>
100481

> <Tr_1_Tst_0>
1

> <Ready_Biodeg>
0.0

$$$$
Row463
  Mrv171c012251911052D          

  9  8  0  0  0  0            999 V2000
    0.7124   -1.2383    0.0000 C   0  0  0  0  0  0  0  0  0  0  0  0
   -0.0020   -0.8258    0.0000 Cl  0  0  0  0  0  0  0  0  0  0  0  0
    1.4269   -0.8258    0.0000 C   0  0  0  0  0  0  0  0  0  0  0  0
    2.1414   -1.2383    0.0000 O   0  0  0  0  0  0  0  0  0  0  0  0
    2.8558   -0.8258    0.0000 C   0  0  0  0  0  0  0  0  0  0  0  0
    2.8558   -0.0008    0.0000 C   0  0  0  0  0  0  0  0  0  0  0  0
    3.5703   -1.2383    0.0000 C   0  0  0  0  0  0  0  0  0  0  0  0
    4.2848   -0.8258    0.0000 Cl  0  0  0  0  0  0  0  0  0  0  0  0
    1.4269   -0.0008    0.0000 C   0  0  0  0  0  0  0  0  0  0  0  0
  1  2  1  0  0  0  0
  1  3  1  0  0  0  0
  3  4  1  0  0  0  0
  4  5  1  0  0  0  0
  5  6  1  0  0  0  0
  5  7  1  0  0  0  0
  7  8  1  0  0  0  0
  3  9  1  0  0  0  0
M  END
> <ChemID>
100472

> <CAS>
108-60-1

> <Original_SMILES>
CC(CCl)OC(C)CCl

> <preferred_name>
bis(2-Chloro-1-methylethyl) ether

> <dsstox_substance_id>
DTXSID4020167

> <dsstox_compound_id>
DTXCID40167

> <qc_level>
DSSTox_High

> <Canonical_QSARr>
CC(CCl)OC(C)CCl

> <InChI_Code_QSARr>
InChI=1S/C6H12Cl2O/c1-5(3-7)9-6(2)4-8/h5-6H,3-4H2,1-2H3

> <InChI Key_QSARr>
QCFYJCYNJLBDRT-UHFFFAOYSA-N

> <Salt_Solvent>


> <Salt_Solvent_ID>
0

> <MPID>
100482

> <Tr_1_Tst_0>
1

> <Ready_Biodeg>
0.0

$$$$
Row464
  Mrv171c012251911052D          

  9  9  0  0  0  0            999 V2000
    2.1349   -2.0567    0.0000 C   0  0  0  0  0  0  0  0  0  0  0  0
    2.8494   -2.4692    0.0000 C   0  0  0  0  0  0  0  0  0  0  0  0
    2.1349   -1.2317    0.0000 C   0  0  0  0  0  0  0  0  0  0  0  0
    1.4204   -0.8192    0.0000 C   0  0  0  0  0  0  0  0  0  0  0  0
    1.4204    0.0058    0.0000 C   0  0  0  0  0  0  0  0  0  0  0  0
    0.7060   -1.2317    0.0000 C   0  0  0  0  0  0  0  0  0  0  0  0
    0.7060   -2.0567    0.0000 C   0  0  0  0  0  0  0  0  0  0  0  0
   -0.0085   -2.4692    0.0000 C   0  0  0  0  0  0  0  0  0  0  0  0
    1.4204   -2.4692    0.0000 C   0  0  0  0  0  0  0  0  0  0  0  0
  1  2  1  0  0  0  0
  3  1  1  0  0  0  0
  4  3  2  0  0  0  0
  4  5  1  0  0  0  0
  6  4  1  0  0  0  0
  7  6  2  0  0  0  0
  7  8  1  0  0  0  0
  9  7  1  0  0  0  0
  1  9  2  0  0  0  0
M  END
> <ChemID>
100473

> <CAS>
108-67-8

> <Original_SMILES>
Cc1cc(C)cc(C)c1

> <preferred_name>
1,3,5-Trimethylbenzene

> <dsstox_substance_id>
DTXSID6026797

> <dsstox_compound_id>
DTXCID506797

> <qc_level>
DSSTox_Low

> <Canonical_QSARr>
CC1C=C(C)C=C(C)C=1

> <InChI_Code_QSARr>
InChI=1S/C9H12/c1-7-4-8(2)6-9(3)5-7/h4-6H,1-3H3

> <InChI Key_QSARr>
AUHZEENZYGFFBQ-UHFFFAOYSA-N

> <Salt_Solvent>


> <Salt_Solvent_ID>
0

> <MPID>
100483

> <Tr_1_Tst_0>
0

> <Ready_Biodeg>
0.0

$$$$
Row465
  Mrv171c012251911052D          

  9  9  0  0  0  0            999 V2000
    3.0801   -2.2547    0.0000 C   0  0  0  0  0  0  0  0  0  0  0  0
    2.3656   -1.8422    0.0000 C   0  0  0  0  0  0  0  0  0  0  0  0
    2.3656   -1.0172    0.0000 C   0  0  0  0  0  0  0  0  0  0  0  0
    1.6512   -0.6047    0.0000 C   0  0  0  0  0  0  0  0  0  0  0  0
    1.6512    0.2203    0.0000 N   0  0  0  0  0  0  0  0  0  0  0  0
    0.9367   -1.0172    0.0000 C   0  0  0  0  0  0  0  0  0  0  0  0
    0.9367   -1.8422    0.0000 C   0  0  0  0  0  0  0  0  0  0  0  0
    0.2222   -2.2547    0.0000 C   0  0  0  0  0  0  0  0  0  0  0  0
    1.6512   -2.2547    0.0000 C   0  0  0  0  0  0  0  0  0  0  0  0
  1  2  1  0  0  0  0
  3  2  1  0  0  0  0
  4  3  2  0  0  0  0
  4  5  1  0  0  0  0
  6  4  1  0  0  0  0
  7  6  2  0  0  0  0
  7  8  1  0  0  0  0
  9  7  1  0  0  0  0
  2  9  2  0  0  0  0
M  END
> <ChemID>
100474

> <CAS>
108-69-0

> <Original_SMILES>
Cc1cc(N)cc(C)c1

> <preferred_name>
3,5-Dimethylaniline

> <dsstox_substance_id>
DTXSID8026309

> <dsstox_compound_id>
DTXCID806309

> <qc_level>
DSSTox_Low

> <Canonical_QSARr>
CC1=CC(N)=CC(C)=C1

> <InChI_Code_QSARr>
InChI=1S/C8H11N/c1-6-3-7(2)5-8(9)4-6/h3-5H,9H2,1-2H3

> <InChI Key_QSARr>
MKARNSWMMBGSHX-UHFFFAOYSA-N

> <Salt_Solvent>


> <Salt_Solvent_ID>
0

> <MPID>
100484

> <Tr_1_Tst_0>
1

> <Ready_Biodeg>
0.0

$$$$
Row466
  Mrv171c012251911052D          

  9  9  0  0  0  0            999 V2000
    2.3656   -1.8422    0.0000 C   0  0  0  0  0  0  0  0  0  0  0  0
    3.0801   -2.2547    0.0000 Cl  0  0  0  0  0  0  0  0  0  0  0  0
    2.3656   -1.0172    0.0000 C   0  0  0  0  0  0  0  0  0  0  0  0
    1.6512   -0.6047    0.0000 C   0  0  0  0  0  0  0  0  0  0  0  0
    1.6512    0.2203    0.0000 Cl  0  0  0  0  0  0  0  0  0  0  0  0
    0.9367   -1.0172    0.0000 C   0  0  0  0  0  0  0  0  0  0  0  0
    0.9367   -1.8422    0.0000 C   0  0  0  0  0  0  0  0  0  0  0  0
    0.2222   -2.2547    0.0000 Cl  0  0  0  0  0  0  0  0  0  0  0  0
    1.6512   -2.2547    0.0000 C   0  0  0  0  0  0  0  0  0  0  0  0
  1  2  1  0  0  0  0
  3  1  1  0  0  0  0
  4  3  2  0  0  0  0
  4  5  1  0  0  0  0
  6  4  1  0  0  0  0
  7  6  2  0  0  0  0
  7  8  1  0  0  0  0
  9  7  1  0  0  0  0
  1  9  2  0  0  0  0
M  END
> <ChemID>
100475

> <CAS>
108-70-3

> <Original_SMILES>
Clc1cc(Cl)cc(Cl)c1

> <preferred_name>
1,3,5-Trichlorobenzene

> <dsstox_substance_id>
DTXSID8026195

> <dsstox_compound_id>
DTXCID506195

> <qc_level>
DSSTox_High

> <Canonical_QSARr>
ClC1C=C(Cl)C=C(Cl)C=1

> <InChI_Code_QSARr>
InChI=1S/C6H3Cl3/c7-4-1-5(8)3-6(9)2-4/h1-3H

> <InChI Key_QSARr>
XKEFYDZQGKAQCN-UHFFFAOYSA-N

> <Salt_Solvent>


> <Salt_Solvent_ID>
0

> <MPID>
100485

> <Tr_1_Tst_0>
1

> <Ready_Biodeg>
0.0

$$$$
Row467
  Mrv171c012251911052D          

  9  9  0  0  0  0            999 V2000
    2.8538   -1.6517    0.0000 O   0  0  0  0  0  0  0  0  0  0  0  0
    2.1393   -1.2392    0.0000 C   0  0  0  0  0  0  0  0  0  0  0  0
    2.1393   -0.4142    0.0000 C   0  0  0  0  0  0  0  0  0  0  0  0
    1.4248   -0.0017    0.0000 C   0  0  0  0  0  0  0  0  0  0  0  0
    1.4248    0.8233    0.0000 O   0  0  0  0  0  0  0  0  0  0  0  0
    0.7104   -0.4142    0.0000 C   0  0  0  0  0  0  0  0  0  0  0  0
    0.7104   -1.2392    0.0000 C   0  0  0  0  0  0  0  0  0  0  0  0
   -0.0041   -1.6517    0.0000 O   0  0  0  0  0  0  0  0  0  0  0  0
    1.4248   -1.6517    0.0000 C   0  0  0  0  0  0  0  0  0  0  0  0
  1  2  1  0  0  0  0
  3  2  1  0  0  0  0
  4  3  2  0  0  0  0
  4  5  1  0  0  0  0
  6  4  1  0  0  0  0
  7  6  2  0  0  0  0
  7  8  1  0  0  0  0
  9  7  1  0  0  0  0
  2  9  2  0  0  0  0
M  END
> <ChemID>
100476

> <CAS>
108-73-6

> <Original_SMILES>
Oc1cc(O)cc(O)c1

> <preferred_name>
1,3,5-Trihydroxybenzene

> <dsstox_substance_id>
DTXSID9048354

> <dsstox_compound_id>
DTXCID0028329

> <qc_level>
DSSTox_Low

> <Canonical_QSARr>
OC1C=C(O)C=C(O)C=1

> <InChI_Code_QSARr>
InChI=1S/C6H6O3/c7-4-1-5(8)3-6(9)2-4/h1-3,7-9H

> <InChI Key_QSARr>
QCDYQQDYXPDABM-UHFFFAOYSA-N

> <Salt_Solvent>


> <Salt_Solvent_ID>
0

> <MPID>
100486

> <Tr_1_Tst_0>
1

> <Ready_Biodeg>
1.0

$$$$
Row468
  Mrv171c012251911052D          

  9  9  0  0  0  0            999 V2000
    3.0801   -2.2547    0.0000 N   0  0  0  0  0  0  0  0  0  0  0  0
    2.3656   -1.8422    0.0000 C   0  0  0  0  0  0  0  0  0  0  0  0
    2.3656   -1.0172    0.0000 N   0  0  0  0  0  0  0  0  0  0  0  0
    1.6512   -0.6047    0.0000 C   0  0  0  0  0  0  0  0  0  0  0  0
    1.6512    0.2203    0.0000 N   0  0  0  0  0  0  0  0  0  0  0  0
    0.9367   -1.0172    0.0000 N   0  0  0  0  0  0  0  0  0  0  0  0
    0.9367   -1.8422    0.0000 C   0  0  0  0  0  0  0  0  0  0  0  0
    0.2222   -2.2547    0.0000 N   0  0  0  0  0  0  0  0  0  0  0  0
    1.6512   -2.2547    0.0000 N   0  0  0  0  0  0  0  0  0  0  0  0
  1  2  1  0  0  0  0
  3  2  1  0  0  0  0
  4  3  2  0  0  0  0
  4  5  1  0  0  0  0
  6  4  1  0  0  0  0
  7  6  2  0  0  0  0
  7  8  1  0  0  0  0
  9  7  1  0  0  0  0
  2  9  2  0  0  0  0
M  END
> <ChemID>
100477

> <CAS>
108-78-1

> <Original_SMILES>
Nc1[n]c(N)[n]c(N)[n]1

> <preferred_name>
Melamine

> <dsstox_substance_id>
DTXSID6020802

> <dsstox_compound_id>
DTXCID40802

> <qc_level>
DSSTox_High

> <Canonical_QSARr>
NC1N=C(N)N=C(N)N=1

> <InChI_Code_QSARr>
InChI=1S/C3H6N6/c4-1-7-2(5)9-3(6)8-1/h(H6,4,5,6,7,8,9)

> <InChI Key_QSARr>
JDSHMPZPIAZGSV-UHFFFAOYSA-N

> <Salt_Solvent>


> <Salt_Solvent_ID>
0

> <MPID>
100487

> <Tr_1_Tst_0>
0

> <Ready_Biodeg>
0.0

$$$$
Row469
  Mrv171c012251911052D          

  9  9  0  0  0  0            999 V2000
    2.3656   -1.0172    0.0000 N   0  0  0  0  0  0  0  0  0  0  0  0
    1.6512   -0.6047    0.0000 C   0  0  0  0  0  0  0  0  0  0  0  0
    1.6512    0.2203    0.0000 O   0  0  0  0  0  0  0  0  0  0  0  0
    0.9367   -1.0172    0.0000 N   0  0  0  0  0  0  0  0  0  0  0  0
    0.9367   -1.8422    0.0000 C   0  0  0  0  0  0  0  0  0  0  0  0
    0.2222   -2.2547    0.0000 O   0  0  0  0  0  0  0  0  0  0  0  0
    1.6512   -2.2547    0.0000 N   0  0  0  0  0  0  0  0  0  0  0  0
    2.3656   -1.8422    0.0000 C   0  0  0  0  0  0  0  0  0  0  0  0
    3.0801   -2.2547    0.0000 O   0  0  0  0  0  0  0  0  0  0  0  0
  2  1  1  0  0  0  0
  2  3  1  0  0  0  0
  4  2  2  0  0  0  0
  5  4  1  0  0  0  0
  5  6  1  0  0  0  0
  7  5  2  0  0  0  0
  8  7  1  0  0  0  0
  1  8  2  0  0  0  0
  8  9  1  0  0  0  0
M  END
> <ChemID>
100478

> <CAS>
108-80-5

> <Original_SMILES>
Oc1[n]c(O)[n]c(O)[n]1

> <preferred_name>
Cyanuric acid

> <dsstox_substance_id>
DTXSID7024873

> <dsstox_compound_id>
DTXCID304873

> <qc_level>
DSSTox_Low

> <Canonical_QSARr>
OC1N=C(O)N=C(O)N=1

> <InChI_Code_QSARr>
InChI=1S/C3H3N3O3/c7-1-4-2(8)6-3(9)5-1/h(H3,4,5,6,7,8,9)

> <InChI Key_QSARr>
ZFSLODLOARCGLH-UHFFFAOYSA-N

> <Salt_Solvent>


> <Salt_Solvent_ID>
0

> <MPID>
100488

> <Tr_1_Tst_0>
1

> <Ready_Biodeg>
1.0

$$$$
Row470
  Mrv171c012251911052D          

 10  9  0  0  0  0            999 V2000
    0.7230   -0.6577    0.0000 C   0  0  0  0  0  0  0  0  0  0  0  0
    0.0085   -0.2452    0.0000 C   0  0  0  0  0  0  0  0  0  0  0  0
    1.4375   -0.2452    0.0000 O   0  0  0  0  0  0  0  0  0  0  0  0
    2.1519   -0.6577    0.0000 C   0  0  0  0  0  0  0  0  0  0  0  0
    2.1519   -1.4827    0.0000 C   0  0  0  0  0  0  0  0  0  0  0  0
    2.8664   -0.2452    0.0000 C   0  0  0  0  0  0  0  0  0  0  0  0
    3.5809   -0.6577    0.0000 C   0  0  0  0  0  0  0  0  0  0  0  0
    4.2954   -0.2452    0.0000 C   0  0  0  0  0  0  0  0  0  0  0  0
    3.5809   -1.4827    0.0000 C   0  0  0  0  0  0  0  0  0  0  0  0
    0.7230   -1.4827    0.0000 O   0  0  0  0  0  0  0  0  0  0  0  0
  1  2  1  0  0  0  0
  1  3  1  0  0  0  0
  3  4  1  0  0  0  0
  4  5  1  0  0  0  0
  4  6  1  0  0  0  0
  6  7  1  0  0  0  0
  7  8  1  0  0  0  0
  7  9  1  0  0  0  0
  1 10  2  0  0  0  0
M  END
> <ChemID>
100479

> <CAS>
108-84-9

> <Original_SMILES>
CC(C)CC(C)OC(C)=O

> <preferred_name>
1,3-Dimethylbutyl acetate

> <dsstox_substance_id>
DTXSID6051562

> <dsstox_compound_id>
DTXCID0030114

> <qc_level>
DSSTox_Low

> <Canonical_QSARr>
CC(C)CC(C)OC(C)=O

> <InChI_Code_QSARr>
InChI=1S/C8H16O2/c1-6(2)5-7(3)10-8(4)9/h6-7H,5H2,1-4H3

> <InChI Key_QSARr>
CPIVYSAVIPTCCX-UHFFFAOYSA-N

> <Salt_Solvent>


> <Salt_Solvent_ID>
0

> <MPID>
100489

> <Tr_1_Tst_0>
1

> <Ready_Biodeg>
1.0

$$$$
Row471
  Mrv171c012251911052D          

  7  7  0  0  0  0            999 V2000
    1.4153   -0.1250    0.0000 C   0  0  0  0  0  0  0  0  0  0  0  0
    1.4153    0.7000    0.0000 Br  0  0  0  0  0  0  0  0  0  0  0  0
    0.7009   -0.5375    0.0000 C   0  0  0  0  0  0  0  0  0  0  0  0
    0.7009   -1.3625    0.0000 C   0  0  0  0  0  0  0  0  0  0  0  0
    1.4153   -1.7750    0.0000 C   0  0  0  0  0  0  0  0  0  0  0  0
    2.1298   -1.3625    0.0000 C   0  0  0  0  0  0  0  0  0  0  0  0
    2.1298   -0.5375    0.0000 C   0  0  0  0  0  0  0  0  0  0  0  0
  1  2  1  0  0  0  0
  3  1  1  0  0  0  0
  4  3  2  0  0  0  0
  5  4  1  0  0  0  0
  6  5  2  0  0  0  0
  7  6  1  0  0  0  0
  1  7  2  0  0  0  0
M  END
> <ChemID>
100480

> <CAS>
108-86-1

> <Original_SMILES>
Brc1ccccc1

> <preferred_name>
Bromobenzene

> <dsstox_substance_id>
DTXSID5024637

> <dsstox_compound_id>
DTXCID304637

> <qc_level>
DSSTox_Low

> <Canonical_QSARr>
BrC1C=CC=CC=1

> <InChI_Code_QSARr>
InChI=1S/C6H5Br/c7-6-4-2-1-3-5-6/h1-5H

> <InChI Key_QSARr>
QARVLSVVCXYDNA-UHFFFAOYSA-N

> <Salt_Solvent>


> <Salt_Solvent_ID>
0

> <MPID>
100490

> <Tr_1_Tst_0>
1

> <Ready_Biodeg>
0.0

$$$$
Row472
  Mrv171c012251911052D          

  7  7  0  0  0  0            999 V2000
    1.4153    0.7000    0.0000 C   0  0  0  0  0  0  0  0  0  0  0  0
    1.4153   -0.1250    0.0000 C   0  0  0  0  0  0  0  0  0  0  0  0
    0.7009   -0.5375    0.0000 C   0  0  0  0  0  0  0  0  0  0  0  0
    0.7009   -1.3625    0.0000 C   0  0  0  0  0  0  0  0  0  0  0  0
    1.4153   -1.7750    0.0000 C   0  0  0  0  0  0  0  0  0  0  0  0
    2.1298   -1.3625    0.0000 C   0  0  0  0  0  0  0  0  0  0  0  0
    2.1298   -0.5375    0.0000 C   0  0  0  0  0  0  0  0  0  0  0  0
  1  2  1  0  0  0  0
  3  2  1  0  0  0  0
  4  3  2  0  0  0  0
  5  4  1  0  0  0  0
  6  5  2  0  0  0  0
  7  6  1  0  0  0  0
  2  7  2  0  0  0  0
M  END
> <ChemID>
100481

> <CAS>
108-88-3

> <Original_SMILES>
Cc1ccccc1

> <preferred_name>
Toluene

> <dsstox_substance_id>
DTXSID7021360

> <dsstox_compound_id>
DTXCID501360

> <qc_level>
DSSTox_Low

> <Canonical_QSARr>
CC1C=CC=CC=1

> <InChI_Code_QSARr>
InChI=1S/C7H8/c1-7-5-3-2-4-6-7/h2-6H,1H3

> <InChI Key_QSARr>
YXFVVABEGXRONW-UHFFFAOYSA-N

> <Salt_Solvent>


> <Salt_Solvent_ID>
0

> <MPID>
100491

> <Tr_1_Tst_0>
0

> <Ready_Biodeg>
1.0

$$$$
Row473
  Mrv171c012251911052D          

  7  7  0  0  0  0            999 V2000
    1.4153    0.7000    0.0000 Cl  0  0  0  0  0  0  0  0  0  0  0  0
    1.4153   -0.1250    0.0000 C   0  0  0  0  0  0  0  0  0  0  0  0
    0.7009   -0.5375    0.0000 C   0  0  0  0  0  0  0  0  0  0  0  0
    0.7009   -1.3625    0.0000 C   0  0  0  0  0  0  0  0  0  0  0  0
    1.4153   -1.7750    0.0000 C   0  0  0  0  0  0  0  0  0  0  0  0
    2.1298   -1.3625    0.0000 C   0  0  0  0  0  0  0  0  0  0  0  0
    2.1298   -0.5375    0.0000 C   0  0  0  0  0  0  0  0  0  0  0  0
  1  2  1  0  0  0  0
  3  2  1  0  0  0  0
  4  3  2  0  0  0  0
  5  4  1  0  0  0  0
  6  5  2  0  0  0  0
  7  6  1  0  0  0  0
  2  7  2  0  0  0  0
M  END
> <ChemID>
100482

> <CAS>
108-90-7

> <Original_SMILES>
Clc1ccccc1

> <preferred_name>
Chlorobenzene

> <dsstox_substance_id>
DTXSID4020298

> <dsstox_compound_id>
DTXCID40298

> <qc_level>
DSSTox_Low

> <Canonical_QSARr>
ClC1C=CC=CC=1

> <InChI_Code_QSARr>
InChI=1S/C6H5Cl/c7-6-4-2-1-3-5-6/h1-5H

> <InChI Key_QSARr>
MVPPADPHJFYWMZ-UHFFFAOYSA-N

> <Salt_Solvent>


> <Salt_Solvent_ID>
0

> <MPID>
100492

> <Tr_1_Tst_0>
1

> <Ready_Biodeg>
0.0

$$$$
Row474
  Mrv171c012251911052D          

  7  7  0  0  0  0            999 V2000
    1.4182    0.6983    0.0000 N   0  0  0  0  0  0  0  0  0  0  0  0
    1.4182   -0.1267    0.0000 C   0  0  0  0  0  0  0  0  0  0  0  0
    0.7037   -0.5392    0.0000 C   0  0  0  0  0  0  0  0  0  0  0  0
    0.7037   -1.3642    0.0000 C   0  0  0  0  0  0  0  0  0  0  0  0
    1.4182   -1.7767    0.0000 C   0  0  0  0  0  0  0  0  0  0  0  0
    2.1327   -1.3642    0.0000 C   0  0  0  0  0  0  0  0  0  0  0  0
    2.1327   -0.5392    0.0000 C   0  0  0  0  0  0  0  0  0  0  0  0
  1  2  1  0  0  0  0
  3  2  1  0  0  0  0
  4  3  1  0  0  0  0
  5  4  1  0  0  0  0
  6  5  1  0  0  0  0
  7  6  1  0  0  0  0
  2  7  1  0  0  0  0
M  END
> <ChemID>
100483

> <CAS>
108-91-8

> <Original_SMILES>
NC1CCCCC1

> <preferred_name>
Cyclohexylamine

> <dsstox_substance_id>
DTXSID1023996

> <dsstox_compound_id>
DTXCID203996

> <qc_level>
DSSTox_Low

> <Canonical_QSARr>
NC1CCCCC1

> <InChI_Code_QSARr>
InChI=1S/C6H13N/c7-6-4-2-1-3-5-6/h6H,1-5,7H2

> <InChI Key_QSARr>
PAFZNILMFXTMIY-UHFFFAOYSA-N

> <Salt_Solvent>


> <Salt_Solvent_ID>
0

> <MPID>
100493

> <Tr_1_Tst_0>
1

> <Ready_Biodeg>
1.0

$$$$
Row475
  Mrv171c012251911052D          

  7  7  0  0  0  0            999 V2000
    2.1298   -0.5375    0.0000 C   0  0  0  0  0  0  0  0  0  0  0  0
    1.4153   -0.1250    0.0000 C   0  0  0  0  0  0  0  0  0  0  0  0
    1.4153    0.7000    0.0000 O   0  0  0  0  0  0  0  0  0  0  0  0
    0.7009   -0.5375    0.0000 C   0  0  0  0  0  0  0  0  0  0  0  0
    0.7009   -1.3625    0.0000 C   0  0  0  0  0  0  0  0  0  0  0  0
    1.4153   -1.7750    0.0000 C   0  0  0  0  0  0  0  0  0  0  0  0
    2.1298   -1.3625    0.0000 C   0  0  0  0  0  0  0  0  0  0  0  0
  2  1  1  0  0  0  0
  2  3  1  0  0  0  0
  4  2  1  0  0  0  0
  5  4  1  0  0  0  0
  6  5  1  0  0  0  0
  7  6  1  0  0  0  0
  1  7  1  0  0  0  0
M  END
> <ChemID>
100484

> <CAS>
108-93-0

> <Original_SMILES>
OC1CCCCC1

> <preferred_name>
Cyclohexanol

> <dsstox_substance_id>
DTXSID4021894

> <dsstox_compound_id>
DTXCID001894

> <qc_level>
DSSTox_Low

> <Canonical_QSARr>
OC1CCCCC1

> <InChI_Code_QSARr>
InChI=1S/C6H12O/c7-6-4-2-1-3-5-6/h6-7H,1-5H2

> <InChI Key_QSARr>
HPXRVTGHNJAIIH-UHFFFAOYSA-N

> <Salt_Solvent>


> <Salt_Solvent_ID>
0

> <MPID>
100494

> <Tr_1_Tst_0>
1

> <Ready_Biodeg>
1.0

$$$$
Row476
  Mrv171c012251911052D          

  7  7  0  0  0  0            999 V2000
    1.4153    0.7000    0.0000 O   0  0  0  0  0  0  0  0  0  0  0  0
    1.4153   -0.1250    0.0000 C   0  0  0  0  0  0  0  0  0  0  0  0
    0.7009   -0.5375    0.0000 C   0  0  0  0  0  0  0  0  0  0  0  0
    0.7009   -1.3625    0.0000 C   0  0  0  0  0  0  0  0  0  0  0  0
    1.4153   -1.7750    0.0000 C   0  0  0  0  0  0  0  0  0  0  0  0
    2.1298   -1.3625    0.0000 C   0  0  0  0  0  0  0  0  0  0  0  0
    2.1298   -0.5375    0.0000 C   0  0  0  0  0  0  0  0  0  0  0  0
  1  2  2  0  0  0  0
  3  2  1  0  0  0  0
  4  3  1  0  0  0  0
  5  4  1  0  0  0  0
  6  5  1  0  0  0  0
  7  6  1  0  0  0  0
  2  7  1  0  0  0  0
M  END
> <ChemID>
100485

> <CAS>
108-94-1

> <Original_SMILES>
O=C1CCCCC1

> <preferred_name>
Cyclohexanone

> <dsstox_substance_id>
DTXSID6020359

> <dsstox_compound_id>
DTXCID00359

> <qc_level>
DSSTox_High

> <Canonical_QSARr>
O=C1CCCCC1

> <InChI_Code_QSARr>
InChI=1S/C6H10O/c7-6-4-2-1-3-5-6/h1-5H2

> <InChI Key_QSARr>
JHIVVAPYMSGYDF-UHFFFAOYSA-N

> <Salt_Solvent>


> <Salt_Solvent_ID>
0

> <MPID>
100495

> <Tr_1_Tst_0>
0

> <Ready_Biodeg>
1.0

$$$$
Row477
  Mrv171c012251911052D          

  7  7  0  0  0  0            999 V2000
    1.4153    0.7000    0.0000 O   0  0  0  0  0  0  0  0  0  0  0  0
    1.4153   -0.1250    0.0000 C   0  0  0  0  0  0  0  0  0  0  0  0
    0.7009   -0.5375    0.0000 C   0  0  0  0  0  0  0  0  0  0  0  0
    0.7009   -1.3625    0.0000 C   0  0  0  0  0  0  0  0  0  0  0  0
    1.4153   -1.7750    0.0000 C   0  0  0  0  0  0  0  0  0  0  0  0
    2.1298   -1.3625    0.0000 C   0  0  0  0  0  0  0  0  0  0  0  0
    2.1298   -0.5375    0.0000 C   0  0  0  0  0  0  0  0  0  0  0  0
  1  2  1  0  0  0  0
  3  2  1  0  0  0  0
  4  3  2  0  0  0  0
  5  4  1  0  0  0  0
  6  5  2  0  0  0  0
  7  6  1  0  0  0  0
  2  7  2  0  0  0  0
M  END
> <ChemID>
100486

> <CAS>
108-95-2

> <Original_SMILES>
Oc1ccccc1

> <preferred_name>
Phenol

> <dsstox_substance_id>
DTXSID5021124

> <dsstox_compound_id>
DTXCID501124

> <qc_level>
DSSTox_Low

> <Canonical_QSARr>
OC1C=CC=CC=1

> <InChI_Code_QSARr>
InChI=1S/C6H6O/c7-6-4-2-1-3-5-6/h1-5,7H

> <InChI Key_QSARr>
ISWSIDIOOBJBQZ-UHFFFAOYSA-N

> <Salt_Solvent>


> <Salt_Solvent_ID>
0

> <MPID>
100496

> <Tr_1_Tst_0>
1

> <Ready_Biodeg>
1.0

$$$$
Row478
  Mrv171c012251911052D          

  7  7  0  0  0  0            999 V2000
    1.8672   -1.9969    0.0000 C   0  0  0  0  0  0  0  0  0  0  0  0
    1.1527   -1.5844    0.0000 C   0  0  0  0  0  0  0  0  0  0  0  0
    1.1527   -0.7594    0.0000 O   0  0  0  0  0  0  0  0  0  0  0  0
    0.4382   -1.9969    0.0000 C   0  0  0  0  0  0  0  0  0  0  0  0
    0.4382   -2.8219    0.0000 C   0  0  0  0  0  0  0  0  0  0  0  0
    1.1527   -3.2344    0.0000 N   0  0  0  0  0  0  0  0  0  0  0  0
    1.8672   -2.8219    0.0000 C   0  0  0  0  0  0  0  0  0  0  0  0
  2  1  2  0  0  0  0
  2  3  1  0  0  0  0
  4  2  1  0  0  0  0
  5  4  2  0  0  0  0
  6  5  1  0  0  0  0
  7  6  2  0  0  0  0
  1  7  1  0  0  0  0
M  END
> <ChemID>
100487

> <CAS>
626-64-2

> <Original_SMILES>
Oc1cc[n]cc1

> <preferred_name>
4-Pyridinol

> <dsstox_substance_id>
DTXSID2052310

> <dsstox_compound_id>
DTXCID9030882

> <qc_level>
DSSTox_Low

> <Canonical_QSARr>
OC1C=CN=CC=1

> <InChI_Code_QSARr>
InChI=1S/C5H5NO/c7-5-1-3-6-4-2-5/h1-4H,(H,6,7)

> <InChI Key_QSARr>
GCNTZFIIOFTKIY-UHFFFAOYSA-N

> <Salt_Solvent>


> <Salt_Solvent_ID>
0

> <MPID>
100497|100884

> <Tr_1_Tst_0>
1

> <Ready_Biodeg>
1.0

$$$$
Row479
  Mrv171c012251911052D          

  7  7  0  0  0  0            999 V2000
    0.7160   -0.8289    0.0000 C   0  0  0  0  0  0  0  0  0  0  0  0
    0.7160   -0.0039    0.0000 S   0  0  0  0  0  0  0  0  0  0  0  0
    0.0015   -1.2414    0.0000 C   0  0  0  0  0  0  0  0  0  0  0  0
    0.0015   -2.0664    0.0000 C   0  0  0  0  0  0  0  0  0  0  0  0
    0.7160   -2.4789    0.0000 C   0  0  0  0  0  0  0  0  0  0  0  0
    1.4305   -2.0664    0.0000 C   0  0  0  0  0  0  0  0  0  0  0  0
    1.4305   -1.2414    0.0000 C   0  0  0  0  0  0  0  0  0  0  0  0
  1  2  1  0  0  0  0
  3  1  1  0  0  0  0
  4  3  2  0  0  0  0
  5  4  1  0  0  0  0
  6  5  2  0  0  0  0
  7  6  1  0  0  0  0
  1  7  2  0  0  0  0
M  END
> <ChemID>
100488

> <CAS>
108-98-5

> <Original_SMILES>
Sc1ccccc1

> <preferred_name>
Benzenethiol

> <dsstox_substance_id>
DTXSID7026811

> <dsstox_compound_id>
DTXCID906811

> <qc_level>
DSSTox_Low

> <Canonical_QSARr>
SC1C=CC=CC=1

> <InChI_Code_QSARr>
InChI=1S/C6H6S/c7-6-4-2-1-3-5-6/h1-5,7H

> <InChI Key_QSARr>
RMVRSNDYEFQCLF-UHFFFAOYSA-N

> <Salt_Solvent>


> <Salt_Solvent_ID>
0

> <MPID>
100498

> <Tr_1_Tst_0>
1

> <Ready_Biodeg>
0.0

$$$$
Row480
  Mrv171c012251911052D          

  7  7  0  0  0  0            999 V2000
    1.6297   -1.3480    0.0000 N   0  0  0  0  0  0  0  0  0  0  0  0
    1.6297   -0.5230    0.0000 C   0  0  0  0  0  0  0  0  0  0  0  0
    0.9153   -0.1105    0.0000 C   0  0  0  0  0  0  0  0  0  0  0  0
    0.9153    0.7145    0.0000 O   0  0  0  0  0  0  0  0  0  0  0  0
    0.2008   -0.5230    0.0000 C   0  0  0  0  0  0  0  0  0  0  0  0
    0.2008   -1.3480    0.0000 C   0  0  0  0  0  0  0  0  0  0  0  0
    0.9153   -1.7605    0.0000 C   0  0  0  0  0  0  0  0  0  0  0  0
  2  1  1  0  0  0  0
  3  2  2  0  0  0  0
  3  4  1  0  0  0  0
  5  3  1  0  0  0  0
  6  5  2  0  0  0  0
  7  6  1  0  0  0  0
  1  7  2  0  0  0  0
M  END
> <ChemID>
100489

> <CAS>
109-00-2

> <Original_SMILES>
Oc1c[n]ccc1

> <preferred_name>
3-Pyridinol

> <dsstox_substance_id>
DTXSID1051563

> <dsstox_compound_id>
DTXCID5030115

> <qc_level>
DSSTox_High

> <Canonical_QSARr>
OC1=CN=CC=C1

> <InChI_Code_QSARr>
InChI=1S/C5H5NO/c7-5-2-1-3-6-4-5/h1-4,7H

> <InChI Key_QSARr>
GRFNBEZIAWKNCO-UHFFFAOYSA-N

> <Salt_Solvent>


> <Salt_Solvent_ID>
0

> <MPID>
100499

> <Tr_1_Tst_0>
0

> <Ready_Biodeg>
1.0

$$$$
Row481
  Mrv171c012251911052D          

  7  7  0  0  0  0            999 V2000
    0.7009   -0.5375    0.0000 N   0  0  0  0  0  0  0  0  0  0  0  0
    0.7009   -1.3625    0.0000 C   0  0  0  0  0  0  0  0  0  0  0  0
    1.4153   -1.7750    0.0000 C   0  0  0  0  0  0  0  0  0  0  0  0
    2.1298   -1.3625    0.0000 C   0  0  0  0  0  0  0  0  0  0  0  0
    2.1298   -0.5375    0.0000 C   0  0  0  0  0  0  0  0  0  0  0  0
    1.4153   -0.1250    0.0000 C   0  0  0  0  0  0  0  0  0  0  0  0
    1.4153    0.7000    0.0000 C   0  0  0  0  0  0  0  0  0  0  0  0
  2  1  1  0  0  0  0
  3  2  2  0  0  0  0
  4  3  1  0  0  0  0
  5  4  2  0  0  0  0
  6  5  1  0  0  0  0
  1  6  2  0  0  0  0
  6  7  1  0  0  0  0
M  END
> <ChemID>
100490

> <CAS>
109-06-8

> <Original_SMILES>
Cc1cccc[n]1

> <preferred_name>
2-Methylpyridine

> <dsstox_substance_id>
DTXSID9021899

> <dsstox_compound_id>
DTXCID001899

> <qc_level>
DSSTox_Low

> <Canonical_QSARr>
CC1C=CC=CN=1

> <InChI_Code_QSARr>
InChI=1S/C6H7N/c1-6-4-2-3-5-7-6/h2-5H,1H3

> <InChI Key_QSARr>
BSKHPKMHTQYZBB-UHFFFAOYSA-N

> <Salt_Solvent>


> <Salt_Solvent_ID>
0

> <MPID>
100500

> <Tr_1_Tst_0>
1

> <Ready_Biodeg>
1.0

$$$$
Row482
  Mrv171c012251911052D          

  7  7  0  0  0  0            999 V2000
    0.7009   -0.5375    0.0000 N   0  0  0  0  0  0  0  0  0  0  0  0
    0.7009   -1.3625    0.0000 C   0  0  0  0  0  0  0  0  0  0  0  0
    1.4153   -1.7750    0.0000 C   0  0  0  0  0  0  0  0  0  0  0  0
    2.1298   -1.3625    0.0000 C   0  0  0  0  0  0  0  0  0  0  0  0
    2.1298   -0.5375    0.0000 C   0  0  0  0  0  0  0  0  0  0  0  0
    1.4153   -0.1250    0.0000 C   0  0  0  0  0  0  0  0  0  0  0  0
    1.4153    0.7000    0.0000 Cl  0  0  0  0  0  0  0  0  0  0  0  0
  2  1  1  0  0  0  0
  3  2  2  0  0  0  0
  4  3  1  0  0  0  0
  5  4  2  0  0  0  0
  6  5  1  0  0  0  0
  1  6  2  0  0  0  0
  6  7  1  0  0  0  0
M  END
> <ChemID>
100491

> <CAS>
109-09-1

> <Original_SMILES>
Clc1cccc[n]1

> <preferred_name>
2-Chloropyridine

> <dsstox_substance_id>
DTXSID8024810

> <dsstox_compound_id>
DTXCID304810

> <qc_level>
DSSTox_Low

> <Canonical_QSARr>
ClC1C=CC=CN=1

> <InChI_Code_QSARr>
InChI=1S/C5H4ClN/c6-5-3-1-2-4-7-5/h1-4H

> <InChI Key_QSARr>
OKDGRDCXVWSXDC-UHFFFAOYSA-N

> <Salt_Solvent>


> <Salt_Solvent_ID>
0

> <MPID>
100501

> <Tr_1_Tst_0>
1

> <Ready_Biodeg>
0.0

$$$$
Row483
  Mrv171c012251911052D          

  7  6  0  0  0  0            999 V2000
    0.3082   -1.2379    0.0000 O   0  0  0  0  0  0  0  0  0  0  0  0
    1.0227   -0.8254    0.0000 C   0  0  0  0  0  0  0  0  0  0  0  0
    1.0227   -0.0004    0.0000 O   0  0  0  0  0  0  0  0  0  0  0  0
    1.7371   -1.2379    0.0000 C   0  0  0  0  0  0  0  0  0  0  0  0
    2.4516   -0.8254    0.0000 C   0  0  0  0  0  0  0  0  0  0  0  0
    3.1661   -1.2379    0.0000 C   0  0  0  0  0  0  0  0  0  0  0  0
    3.8806   -0.8254    0.0000 C   0  0  0  0  0  0  0  0  0  0  0  0
  1  2  1  0  0  0  0
  2  3  2  0  0  0  0
  2  4  1  0  0  0  0
  4  5  1  0  0  0  0
  5  6  1  0  0  0  0
  6  7  1  0  0  0  0
M  END
> <ChemID>
100492

> <CAS>
109-52-4

> <Original_SMILES>
CCCCC(O)=O

> <preferred_name>
Pentanoic acid

> <dsstox_substance_id>
DTXSID7021655

> <dsstox_compound_id>
DTXCID801655

> <qc_level>
DSSTox_Low

> <Canonical_QSARr>
CCCCC(O)=O

> <InChI_Code_QSARr>
InChI=1S/C5H10O2/c1-2-3-4-5(6)7/h2-4H2,1H3,(H,6,7)

> <InChI Key_QSARr>
NQPDZGIKBAWPEJ-UHFFFAOYSA-N

> <Salt_Solvent>


> <Salt_Solvent_ID>
0

> <MPID>
100502

> <Tr_1_Tst_0>
1

> <Ready_Biodeg>
1.0

$$$$
Row484
  Mrv171c012251911052D          

  7  6  0  0  0  0            999 V2000
    0.3083   -1.2379    0.0000 C   0  0  0  0  0  0  0  0  0  0  0  0
    1.0228   -0.8254    0.0000 C   0  0  0  0  0  0  0  0  0  0  0  0
    1.7373   -1.2379    0.0000 O   0  0  0  0  0  0  0  0  0  0  0  0
    2.4517   -0.8254    0.0000 C   0  0  0  0  0  0  0  0  0  0  0  0
    3.1662   -1.2379    0.0000 C   0  0  0  0  0  0  0  0  0  0  0  0
    3.8807   -0.8254    0.0000 C   0  0  0  0  0  0  0  0  0  0  0  0
    1.0228   -0.0004    0.0000 O   0  0  0  0  0  0  0  0  0  0  0  0
  1  2  1  0  0  0  0
  2  3  1  0  0  0  0
  3  4  1  0  0  0  0
  4  5  1  0  0  0  0
  5  6  1  0  0  0  0
  2  7  2  0  0  0  0
M  END
> <ChemID>
100493

> <CAS>
109-60-4

> <Original_SMILES>
CCCOC(C)=O

> <preferred_name>
Propyl acetate

> <dsstox_substance_id>
DTXSID6021901

> <dsstox_compound_id>
DTXCID301901

> <qc_level>
DSSTox_Low

> <Canonical_QSARr>
CCCOC(C)=O

> <InChI_Code_QSARr>
InChI=1S/C5H10O2/c1-3-4-7-5(2)6/h3-4H2,1-2H3

> <InChI Key_QSARr>
YKYONYBAUNKHLG-UHFFFAOYSA-N

> <Salt_Solvent>


> <Salt_Solvent_ID>
0

> <MPID>
100503

> <Tr_1_Tst_0>
0

> <Ready_Biodeg>
1.0

$$$$
Row485
  Mrv171c012251911052D          

  5  4  0  0  0  0            999 V2000
    2.1723   -0.3899    0.0000 C   0  0  0  0  0  0  0  0  0  0  0  0
    2.5848   -1.1044    0.0000 C   0  0  0  0  0  0  0  0  0  0  0  0
    1.3473   -0.3899    0.0000 C   0  0  0  0  0  0  0  0  0  0  0  0
    0.9348    0.3245    0.0000 C   0  0  0  0  0  0  0  0  0  0  0  0
    0.1098    0.3245    0.0000 C   0  0  0  0  0  0  0  0  0  0  0  0
  1  2  1  0  0  0  0
  1  3  1  0  0  0  0
  3  4  1  0  0  0  0
  4  5  1  0  0  0  0
M  END
> <ChemID>
100494

> <CAS>
109-66-0

> <Original_SMILES>
CCCCC

> <preferred_name>
Pentane

> <dsstox_substance_id>
DTXSID2025846

> <dsstox_compound_id>
DTXCID705846

> <qc_level>
DSSTox_Low

> <Canonical_QSARr>
CCCCC

> <InChI_Code_QSARr>
InChI=1S/C5H12/c1-3-5-4-2/h3-5H2,1-2H3

> <InChI Key_QSARr>
OFBQJSOFQDEBGM-UHFFFAOYSA-N

> <Salt_Solvent>


> <Salt_Solvent_ID>
0

> <MPID>
100504

> <Tr_1_Tst_0>
1

> <Ready_Biodeg>
1.0

$$$$
Row486
  Mrv171c012251911052D          

  5  4  0  0  0  0            999 V2000
    2.5848   -1.1044    0.0000 C   0  0  0  0  0  0  0  0  0  0  0  0
    2.1723   -0.3899    0.0000 C   0  0  0  0  0  0  0  0  0  0  0  0
    1.3473   -0.3899    0.0000 C   0  0  0  0  0  0  0  0  0  0  0  0
    0.9348    0.3245    0.0000 C   0  0  0  0  0  0  0  0  0  0  0  0
    0.1098    0.3245    0.0000 Cl  0  0  0  0  0  0  0  0  0  0  0  0
  1  2  1  0  0  0  0
  2  3  1  0  0  0  0
  3  4  1  0  0  0  0
  4  5  1  0  0  0  0
M  END
> <ChemID>
100495

> <CAS>
109-69-3

> <Original_SMILES>
CCCCCl

> <preferred_name>
1-Chlorobutane

> <dsstox_substance_id>
DTXSID8020206

> <dsstox_compound_id>
DTXCID00206

> <qc_level>
DSSTox_Low

> <Canonical_QSARr>
CCCCCl

> <InChI_Code_QSARr>
InChI=1S/C4H9Cl/c1-2-3-4-5/h2-4H2,1H3

> <InChI Key_QSARr>
VFWCMGCRMGJXDK-UHFFFAOYSA-N

> <Salt_Solvent>


> <Salt_Solvent_ID>
0

> <MPID>
100505

> <Tr_1_Tst_0>
1

> <Ready_Biodeg>
0.0

$$$$
Row487
  Mrv171c012251911052D          

  5  4  0  0  0  0            999 V2000
    2.5848   -1.1044    0.0000 C   0  0  0  0  0  0  0  0  0  0  0  0
    2.1723   -0.3899    0.0000 C   0  0  0  0  0  0  0  0  0  0  0  0
    1.3473   -0.3899    0.0000 C   0  0  0  0  0  0  0  0  0  0  0  0
    0.9348    0.3245    0.0000 C   0  0  0  0  0  0  0  0  0  0  0  0
    0.1098    0.3245    0.0000 N   0  0  0  0  0  0  0  0  0  0  0  0
  1  2  1  0  0  0  0
  2  3  1  0  0  0  0
  3  4  1  0  0  0  0
  4  5  1  0  0  0  0
M  END
> <ChemID>
100496

> <CAS>
109-73-9

> <Original_SMILES>
CCCCN

> <preferred_name>
Butylamine

> <dsstox_substance_id>
DTXSID1021904

> <dsstox_compound_id>
DTXCID501904

> <qc_level>
DSSTox_High

> <Canonical_QSARr>
CCCCN

> <InChI_Code_QSARr>
InChI=1S/C4H11N/c1-2-3-4-5/h2-5H2,1H3

> <InChI Key_QSARr>
HQABUPZFAYXKJW-UHFFFAOYSA-N

> <Salt_Solvent>


> <Salt_Solvent_ID>
0

> <MPID>
100506

> <Tr_1_Tst_0>
1

> <Ready_Biodeg>
1.0

$$$$
Row488
  Mrv171c012251911052D          

  5  4  0  0  0  0            999 V2000
    2.3095   -1.7165    0.0000 C   0  0  0  0  0  0  0  0  0  0  0  0
    1.8970   -1.0020    0.0000 O   0  0  0  0  0  0  0  0  0  0  0  0
    1.0720   -1.0020    0.0000 C   0  0  0  0  0  0  0  0  0  0  0  0
    0.6595   -0.2876    0.0000 C   0  0  0  0  0  0  0  0  0  0  0  0
   -0.1655   -0.2876    0.0000 O   0  0  0  0  0  0  0  0  0  0  0  0
  1  2  1  0  0  0  0
  2  3  1  0  0  0  0
  3  4  1  0  0  0  0
  4  5  1  0  0  0  0
M  END
> <ChemID>
100497

> <CAS>
109-86-4

> <Original_SMILES>
COCCO

> <preferred_name>
2-Methoxyethanol

> <dsstox_substance_id>
DTXSID5024182

> <dsstox_compound_id>
DTXCID804182

> <qc_level>
DSSTox_Low

> <Canonical_QSARr>
COCCO

> <InChI_Code_QSARr>
InChI=1S/C3H8O2/c1-5-3-2-4/h4H,2-3H2,1H3

> <InChI Key_QSARr>
XNWFRZJHXBZDAG-UHFFFAOYSA-N

> <Salt_Solvent>


> <Salt_Solvent_ID>
0

> <MPID>
100507

> <Tr_1_Tst_0>
0

> <Ready_Biodeg>
1.0

$$$$
Row489
  Mrv171c012251911052D          

  5  4  0  0  0  0            999 V2000
    2.5848   -1.1044    0.0000 C   0  0  0  0  0  0  0  0  0  0  0  0
    2.1723   -0.3899    0.0000 C   0  0  0  0  0  0  0  0  0  0  0  0
    1.3473   -0.3899    0.0000 N   0  0  0  0  0  0  0  0  0  0  0  0
    0.9348    0.3245    0.0000 C   0  0  0  0  0  0  0  0  0  0  0  0
    0.1098    0.3245    0.0000 C   0  0  0  0  0  0  0  0  0  0  0  0
  1  2  1  0  0  0  0
  2  3  1  0  0  0  0
  3  4  1  0  0  0  0
  4  5  1  0  0  0  0
M  END
> <ChemID>
100498

> <CAS>
109-89-7

> <Original_SMILES>
CCNCC

> <preferred_name>
Diethylamine

> <dsstox_substance_id>
DTXSID6021909

> <dsstox_compound_id>
DTXCID501909

> <qc_level>
DSSTox_Low

> <Canonical_QSARr>
CCNCC

> <InChI_Code_QSARr>
InChI=1S/C4H11N/c1-3-5-4-2/h5H,3-4H2,1-2H3

> <InChI Key_QSARr>
HPNMFZURTQLUMO-UHFFFAOYSA-N

> <Salt_Solvent>


> <Salt_Solvent_ID>
0

> <MPID>
100508

> <Tr_1_Tst_0>
1

> <Ready_Biodeg>
1.0

$$$$
Row490
  Mrv171c012251911052D          

  5  5  0  0  0  0            999 V2000
    1.3350   -0.3511    0.0000 N   0  0  0  0  0  0  0  0  0  0  0  0
    0.6676    0.1338    0.0000 C   0  0  0  0  0  0  0  0  0  0  0  0
    0.0001   -0.3511    0.0000 C   0  0  0  0  0  0  0  0  0  0  0  0
    0.2551   -1.1357    0.0000 C   0  0  0  0  0  0  0  0  0  0  0  0
    1.0801   -1.1357    0.0000 C   0  0  0  0  0  0  0  0  0  0  0  0
  2  1  1  0  0  0  0
  3  2  2  0  0  0  0
  4  3  1  0  0  0  0
  5  4  2  0  0  0  0
  1  5  1  0  0  0  0
M  END
> <ChemID>
100499

> <CAS>
109-97-7

> <Original_SMILES>
c1ccc[nH]1

> <preferred_name>
Pyrrole

> <dsstox_substance_id>
DTXSID5021910

> <dsstox_compound_id>
DTXCID201910

> <qc_level>
DSSTox_Low

> <Canonical_QSARr>
C1=CC=CN1

> <InChI_Code_QSARr>
InChI=1S/C4H5N/c1-2-4-5-3-1/h1-5H

> <InChI Key_QSARr>
KAESVJOAVNADME-UHFFFAOYSA-N

> <Salt_Solvent>


> <Salt_Solvent_ID>
0

> <MPID>
100509

> <Tr_1_Tst_0>
1

> <Ready_Biodeg>
1.0

$$$$
Row491
  Mrv171c012251911052D          

  5  5  0  0  0  0            999 V2000
    1.3286   -0.4612    0.0000 O   0  0  0  0  0  0  0  0  0  0  0  0
    0.6612    0.0237    0.0000 C   0  0  0  0  0  0  0  0  0  0  0  0
   -0.0062   -0.4612    0.0000 C   0  0  0  0  0  0  0  0  0  0  0  0
    0.2487   -1.2458    0.0000 C   0  0  0  0  0  0  0  0  0  0  0  0
    1.0737   -1.2458    0.0000 C   0  0  0  0  0  0  0  0  0  0  0  0
  2  1  1  0  0  0  0
  3  2  1  0  0  0  0
  4  3  1  0  0  0  0
  5  4  1  0  0  0  0
  1  5  1  0  0  0  0
M  END
> <ChemID>
100500

> <CAS>
109-99-9

> <Original_SMILES>
C1CCCO1

> <preferred_name>
Tetrahydrofuran

> <dsstox_substance_id>
DTXSID1021328

> <dsstox_compound_id>
DTXCID501328

> <qc_level>
DSSTox_Low

> <Canonical_QSARr>
C1CCCO1

> <InChI_Code_QSARr>
InChI=1S/C4H8O/c1-2-4-5-3-1/h1-4H2

> <InChI Key_QSARr>
WYURNTSHIVDZCO-UHFFFAOYSA-N

> <Salt_Solvent>


> <Salt_Solvent_ID>
0

> <MPID>
100510

> <Tr_1_Tst_0>
1

> <Ready_Biodeg>
1.0

$$$$
Row492
  Mrv171c012251911052D          

  5  5  0  0  0  0            999 V2000
    1.3347   -0.3508    0.0000 C   0  0  0  0  0  0  0  0  0  0  0  0
    0.6672    0.1341    0.0000 C   0  0  0  0  0  0  0  0  0  0  0  0
   -0.0002   -0.3508    0.0000 C   0  0  0  0  0  0  0  0  0  0  0  0
    0.2547   -1.1354    0.0000 O   0  0  0  0  0  0  0  0  0  0  0  0
    1.0797   -1.1354    0.0000 C   0  0  0  0  0  0  0  0  0  0  0  0
  2  1  1  0  0  0  0
  3  2  2  0  0  0  0
  4  3  1  0  0  0  0
  5  4  1  0  0  0  0
  1  5  2  0  0  0  0
M  END
> <ChemID>
100501

> <CAS>
110-00-9

> <Original_SMILES>
c1ccco1

> <preferred_name>
Furan

> <dsstox_substance_id>
DTXSID6020646

> <dsstox_compound_id>
DTXCID20646

> <qc_level>
DSSTox_Low

> <Canonical_QSARr>
C1=CC=CO1

> <InChI_Code_QSARr>
InChI=1S/C4H4O/c1-2-4-5-3-1/h1-4H

> <InChI Key_QSARr>
YLQBMQCUIZJEEH-UHFFFAOYSA-N

> <Salt_Solvent>


> <Salt_Solvent_ID>
0

> <MPID>
100511

> <Tr_1_Tst_0>
0

> <Ready_Biodeg>
0.0

$$$$
Row493
  Mrv171c012251911052D          

  5  5  0  0  0  0            999 V2000
    1.3347   -0.3508    0.0000 C   0  0  0  0  0  0  0  0  0  0  0  0
    0.6672    0.1341    0.0000 C   0  0  0  0  0  0  0  0  0  0  0  0
   -0.0002   -0.3508    0.0000 C   0  0  0  0  0  0  0  0  0  0  0  0
    0.2547   -1.1354    0.0000 S   0  0  0  0  0  0  0  0  0  0  0  0
    1.0797   -1.1354    0.0000 C   0  0  0  0  0  0  0  0  0  0  0  0
  2  1  1  0  0  0  0
  3  2  2  0  0  0  0
  4  3  1  0  0  0  0
  5  4  1  0  0  0  0
  1  5  2  0  0  0  0
M  END
> <ChemID>
100502

> <CAS>
110-02-1

> <Original_SMILES>
c1ccc[s]1

> <preferred_name>
Thiophene

> <dsstox_substance_id>
DTXSID8026145

> <dsstox_compound_id>
DTXCID006145

> <qc_level>
DSSTox_Low

> <Canonical_QSARr>
C1=CC=CS1

> <InChI_Code_QSARr>
InChI=1S/C4H4S/c1-2-4-5-3-1/h1-4H

> <InChI Key_QSARr>
YTPLMLYBLZKORZ-UHFFFAOYSA-N

> <Salt_Solvent>


> <Salt_Solvent_ID>
0

> <MPID>
100512

> <Tr_1_Tst_0>
1

> <Ready_Biodeg>
0.0

$$$$
Row494
  Mrv171c012251911052D          

  8  7  0  0  0  0            999 V2000
    0.7163   -0.8254    0.0000 C   0  0  0  0  0  0  0  0  0  0  0  0
    1.4308   -1.2379    0.0000 C   0  0  0  0  0  0  0  0  0  0  0  0
    2.1453   -0.8254    0.0000 C   0  0  0  0  0  0  0  0  0  0  0  0
    2.8598   -1.2379    0.0000 C   0  0  0  0  0  0  0  0  0  0  0  0
    3.5742   -0.8254    0.0000 O   0  0  0  0  0  0  0  0  0  0  0  0
    2.8598   -2.0629    0.0000 O   0  0  0  0  0  0  0  0  0  0  0  0
    0.0019   -1.2379    0.0000 O   0  0  0  0  0  0  0  0  0  0  0  0
    0.7163   -0.0004    0.0000 O   0  0  0  0  0  0  0  0  0  0  0  0
  1  2  1  0  0  0  0
  2  3  1  0  0  0  0
  3  4  1  0  0  0  0
  4  5  2  0  0  0  0
  4  6  1  0  0  0  0
  1  7  2  0  0  0  0
  1  8  1  0  0  0  0
M  END
> <ChemID>
100503

> <CAS>
110-15-6

> <Original_SMILES>
OC(=O)CCC(O)=O

> <preferred_name>
Butanedioic acid

> <dsstox_substance_id>
DTXSID6023602

> <dsstox_compound_id>
DTXCID303602

> <qc_level>
DSSTox_Low

> <Canonical_QSARr>
OC(=O)CCC(O)=O

> <InChI_Code_QSARr>
InChI=1S/C4H6O4/c5-3(6)1-2-4(7)8/h1-2H2,(H,5,6)(H,7,8)

> <InChI Key_QSARr>
KDYFGRWQOYBRFD-UHFFFAOYSA-N

> <Salt_Solvent>


> <Salt_Solvent_ID>
0

> <MPID>
100513

> <Tr_1_Tst_0>
1

> <Ready_Biodeg>
1.0

$$$$
Row495
  Mrv171c012251911052D          

  8  7  0  0  0  0            999 V2000
    2.0625    0.7145    0.0000 O   0  0  0  0  0  0  0  0  0  0  0  0
    1.2375    0.7145    0.0000 C   0  0  0  0  0  0  0  0  0  0  0  0
    0.8250    1.4289    0.0000 O   0  0  0  0  0  0  0  0  0  0  0  0
    0.8250    0.0000    0.0000 C   0  0  0  0  0  0  0  0  0  0  0  0
    0.0000    0.0000    0.0000 C   0  0  0  0  0  0  0  0  0  0  0  0
   -0.4125   -0.7145    0.0000 C   0  0  0  0  0  0  0  0  0  0  0  0
    0.0000   -1.4289    0.0000 O   0  0  0  0  0  0  0  0  0  0  0  0
   -1.2375   -0.7145    0.0000 O   0  0  0  0  0  0  0  0  0  0  0  0
  1  2  1  0  0  0  0
  2  3  2  0  0  0  0
  4  2  1  4  0  0  0
  4  5  2  0  0  0  0
  5  6  1  0  0  0  0
  6  7  1  0  0  0  0
  6  8  2  0  0  0  0
M  END
> <ChemID>
100504

> <CAS>
110-16-7|110-17-8

> <Original_SMILES>
OC(=O)/C=C\C(O)=O

> <preferred_name>
Maleic acid|Fumaric acid

> <dsstox_substance_id>
DTXSID8021517|DTXSID3021518

> <dsstox_compound_id>
DTXCID201517|DTXCID601518

> <qc_level>
DSSTox_High

> <Canonical_QSARr>
OC(=O)C=CC(O)=O

> <InChI_Code_QSARr>
InChI=1S/C4H4O4/c5-3(6)1-2-4(7)8/h1-2H,(H,5,6)(H,7,8)

> <InChI Key_QSARr>
VZCYOOQTPOCHFL-UHFFFAOYSA-N

> <Salt_Solvent>


> <Salt_Solvent_ID>
0

> <MPID>
100514|100515

> <Tr_1_Tst_0>
1

> <Ready_Biodeg>
1.0

$$$$
Row496
  Mrv171c012251911052D          

  8  7  0  0  0  0            999 V2000
    0.7125   -0.8250    0.0000 C   0  0  0  0  0  0  0  0  0  0  0  0
   -0.0020   -1.2375    0.0000 C   0  0  0  0  0  0  0  0  0  0  0  0
    1.4270   -1.2375    0.0000 O   0  0  0  0  0  0  0  0  0  0  0  0
    2.1415   -0.8250    0.0000 C   0  0  0  0  0  0  0  0  0  0  0  0
    2.8559   -1.2375    0.0000 C   0  0  0  0  0  0  0  0  0  0  0  0
    3.5704   -0.8250    0.0000 C   0  0  0  0  0  0  0  0  0  0  0  0
    2.8559   -2.0625    0.0000 C   0  0  0  0  0  0  0  0  0  0  0  0
    0.7125   -0.0000    0.0000 O   0  0  0  0  0  0  0  0  0  0  0  0
  1  2  1  0  0  0  0
  1  3  1  0  0  0  0
  3  4  1  0  0  0  0
  4  5  1  0  0  0  0
  5  6  1  0  0  0  0
  5  7  1  0  0  0  0
  1  8  2  0  0  0  0
M  END
> <ChemID>
100506

> <CAS>
110-19-0

> <Original_SMILES>
CC(C)COC(C)=O

> <preferred_name>
Isobutyl acetate

> <dsstox_substance_id>
DTXSID5026837

> <dsstox_compound_id>
DTXCID906837

> <qc_level>
DSSTox_Low

> <Canonical_QSARr>
CC(C)COC(C)=O

> <InChI_Code_QSARr>
InChI=1S/C6H12O2/c1-5(2)4-8-6(3)7/h5H,4H2,1-3H3

> <InChI Key_QSARr>
GJRQTCIYDGXPES-UHFFFAOYSA-N

> <Salt_Solvent>


> <Salt_Solvent_ID>
0

> <MPID>
100516

> <Tr_1_Tst_0>
0

> <Ready_Biodeg>
1.0

$$$$
Row497
  Mrv171c012251911052D          

 42 41  0  0  0  0            999 V2000
   11.9556   -0.7976    0.0000 C   0  0  0  0  0  0  0  0  0  0  0  0
   11.2411   -1.2101    0.0000 C   0  0  0  0  0  0  0  0  0  0  0  0
   10.5266   -0.7976    0.0000 C   0  0  0  0  0  0  0  0  0  0  0  0
    9.8122   -1.2101    0.0000 C   0  0  0  0  0  0  0  0  0  0  0  0
    9.0977   -0.7976    0.0000 C   0  0  0  0  0  0  0  0  0  0  0  0
    8.3832   -1.2101    0.0000 C   0  0  0  0  0  0  0  0  0  0  0  0
    7.6688   -0.7976    0.0000 C   0  0  0  0  0  0  0  0  0  0  0  0
    6.9543   -1.2101    0.0000 C   0  0  0  0  0  0  0  0  0  0  0  0
    6.2398   -0.7976    0.0000 C   0  0  0  0  0  0  0  0  0  0  0  0
    5.5253   -1.2101    0.0000 C   0  0  0  0  0  0  0  0  0  0  0  0
    4.8109   -0.7976    0.0000 C   0  0  0  0  0  0  0  0  0  0  0  0
    4.0964   -1.2101    0.0000 C   0  0  0  0  0  0  0  0  0  0  0  0
    3.3819   -0.7976    0.0000 C   0  0  0  0  0  0  0  0  0  0  0  0
    2.6675   -1.2101    0.0000 C   0  0  0  0  0  0  0  0  0  0  0  0
    1.9530   -0.7976    0.0000 C   0  0  0  0  0  0  0  0  0  0  0  0
    1.2385   -1.2101    0.0000 C   0  0  0  0  0  0  0  0  0  0  0  0
    0.5240   -0.7976    0.0000 C   0  0  0  0  0  0  0  0  0  0  0  0
   -0.1904   -1.2101    0.0000 C   0  0  0  0  0  0  0  0  0  0  0  0
   12.6701   -1.2101    0.0000 N   0  0  0  0  0  0  0  0  0  0  0  0
   13.3845   -0.7976    0.0000 C   0  0  0  0  0  0  0  0  0  0  0  0
   14.0990   -1.2101    0.0000 C   0  0  0  0  0  0  0  0  0  0  0  0
   14.8135   -0.7976    0.0000 N   0  0  0  0  0  0  0  0  0  0  0  0
   15.5279   -1.2101    0.0000 C   0  0  0  0  0  0  0  0  0  0  0  0
   16.2424   -0.7976    0.0000 C   0  0  0  0  0  0  0  0  0  0  0  0
   16.9569   -1.2101    0.0000 C   0  0  0  0  0  0  0  0  0  0  0  0
   17.6713   -0.7976    0.0000 C   0  0  0  0  0  0  0  0  0  0  0  0
   18.3858   -1.2101    0.0000 C   0  0  0  0  0  0  0  0  0  0  0  0
   19.1003   -0.7976    0.0000 C   0  0  0  0  0  0  0  0  0  0  0  0
   19.8148   -1.2101    0.0000 C   0  0  0  0  0  0  0  0  0  0  0  0
   20.5292   -0.7976    0.0000 C   0  0  0  0  0  0  0  0  0  0  0  0
   21.2437   -1.2101    0.0000 C   0  0  0  0  0  0  0  0  0  0  0  0
   21.9582   -0.7976    0.0000 C   0  0  0  0  0  0  0  0  0  0  0  0
   22.6726   -1.2101    0.0000 C   0  0  0  0  0  0  0  0  0  0  0  0
   23.3871   -0.7976    0.0000 C   0  0  0  0  0  0  0  0  0  0  0  0
   24.1016   -1.2101    0.0000 C   0  0  0  0  0  0  0  0  0  0  0  0
   24.8161   -0.7976    0.0000 C   0  0  0  0  0  0  0  0  0  0  0  0
   25.5305   -1.2101    0.0000 C   0  0  0  0  0  0  0  0  0  0  0  0
   26.2450   -0.7976    0.0000 C   0  0  0  0  0  0  0  0  0  0  0  0
   26.9595   -1.2101    0.0000 C   0  0  0  0  0  0  0  0  0  0  0  0
   27.6739   -0.7976    0.0000 C   0  0  0  0  0  0  0  0  0  0  0  0
   15.5279   -2.0351    0.0000 O   0  0  0  0  0  0  0  0  0  0  0  0
   11.9556    0.0274    0.0000 O   0  0  0  0  0  0  0  0  0  0  0  0
  1  2  1  0  0  0  0
  2  3  1  0  0  0  0
  3  4  1  0  0  0  0
  4  5  1  0  0  0  0
  5  6  1  0  0  0  0
  6  7  1  0  0  0  0
  7  8  1  0  0  0  0
  8  9  1  0  0  0  0
  9 10  1  0  0  0  0
 10 11  1  0  0  0  0
 11 12  1  0  0  0  0
 12 13  1  0  0  0  0
 13 14  1  0  0  0  0
 14 15  1  0  0  0  0
 15 16  1  0  0  0  0
 16 17  1  0  0  0  0
 17 18  1  0  0  0  0
  1 19  1  0  0  0  0
 19 20  1  0  0  0  0
 20 21  1  0  0  0  0
 21 22  1  0  0  0  0
 22 23  1  0  0  0  0
 23 24  1  0  0  0  0
 24 25  1  0  0  0  0
 25 26  1  0  0  0  0
 26 27  1  0  0  0  0
 27 28  1  0  0  0  0
 28 29  1  0  0  0  0
 29 30  1  0  0  0  0
 30 31  1  0  0  0  0
 31 32  1  0  0  0  0
 32 33  1  0  0  0  0
 33 34  1  0  0  0  0
 34 35  1  0  0  0  0
 35 36  1  0  0  0  0
 36 37  1  0  0  0  0
 37 38  1  0  0  0  0
 38 39  1  0  0  0  0
 39 40  1  0  0  0  0
 23 41  2  0  0  0  0
  1 42  2  0  0  0  0
M  END
> <ChemID>
100507

> <CAS>
110-30-5

> <Original_SMILES>
CCCCCCCCCCCCCCCCCC(=O)NCCNC(=O)CCCCCCCCCCCCCCCCC

> <preferred_name>
N,N'-Ethylene distearylamide

> <dsstox_substance_id>
DTXSID4026840

> <dsstox_compound_id>
DTXCID406840

> <qc_level>
DSSTox_Low

> <Canonical_QSARr>
CCCCCCCCCCCCCCCCCC(=O)NCCNC(=O)CCCCCCCCCCCCCCCCC

> <InChI_Code_QSARr>
InChI=1S/C38H76N2O2/c1-3-5-7-9-11-13-15-17-19-21-23-25-27-29-31-33-37(41)39-35-36-40-38(42)34-32-30-28-26-24-22-20-18-16-14-12-10-8-6-4-2/h3-36H2,1-2H3,(H,39,41)(H,40,42)

> <InChI Key_QSARr>
RKISUIUJZGSLEV-UHFFFAOYSA-N

> <Salt_Solvent>


> <Salt_Solvent_ID>
0

> <MPID>
100517

> <Tr_1_Tst_0>
1

> <Ready_Biodeg>
0.0

$$$$
Row498
  Mrv171c012251911052D          

  8  7  0  0  0  0            999 V2000
    2.4750    1.4289    0.0000 C   0  0  0  0  0  0  0  0  0  0  0  0
    2.0625    0.7145    0.0000 C   0  0  0  0  0  0  0  0  0  0  0  0
    1.2375    0.7145    0.0000 C   0  0  0  0  0  0  0  0  0  0  0  0
    0.8250    0.0000    0.0000 C   0  0  0  0  0  0  0  0  0  0  0  0
    0.0000    0.0000    0.0000 C   0  0  0  0  0  0  0  0  0  0  0  0
   -0.4125   -0.7145    0.0000 C   0  0  0  0  0  0  0  0  0  0  0  0
    0.0000   -1.4289    0.0000 O   0  0  0  0  0  0  0  0  0  0  0  0
   -1.2375   -0.7145    0.0000 O   0  0  0  0  0  0  0  0  0  0  0  0
  2  1  1  4  0  0  0
  2  3  2  0  0  0  0
  4  3  1  4  0  0  0
  4  5  2  0  0  0  0
  5  6  1  0  0  0  0
  6  7  1  0  0  0  0
  6  8  2  0  0  0  0
M  END
> <ChemID>
100508

> <CAS>
110-44-1

> <Original_SMILES>
C/C=C/C=C/C(O)=O

> <preferred_name>
Sorbic acid

> <dsstox_substance_id>
DTXSID3021277

> <dsstox_compound_id>
DTXCID401277

> <qc_level>
DSSTox_Low

> <Canonical_QSARr>
CC=CC=CC(O)=O

> <InChI_Code_QSARr>
InChI=1S/C6H8O2/c1-2-3-4-5-6(7)8/h2-5H,1H3,(H,7,8)

> <InChI Key_QSARr>
WSWCOQWTEOXDQX-UHFFFAOYSA-N

> <Salt_Solvent>


> <Salt_Solvent_ID>
0

> <MPID>
100518

> <Tr_1_Tst_0>
1

> <Ready_Biodeg>
1.0

$$$$
Row499
  Mrv171c012251911052D          

  8  7  0  0  0  0            999 V2000
   -0.1066   -0.4070    0.0000 O   0  0  0  0  0  0  0  0  0  0  0  0
    0.6078   -0.8195    0.0000 C   0  0  0  0  0  0  0  0  0  0  0  0
    0.6078   -1.6445    0.0000 C   0  0  0  0  0  0  0  0  0  0  0  0
    1.3223   -0.4070    0.0000 O   0  0  0  0  0  0  0  0  0  0  0  0
    2.0368   -0.8195    0.0000 C   0  0  0  0  0  0  0  0  0  0  0  0
    2.7512   -0.4070    0.0000 C   0  0  0  0  0  0  0  0  0  0  0  0
    3.4657   -0.8195    0.0000 O   0  0  0  0  0  0  0  0  0  0  0  0
    4.1802   -0.4070    0.0000 C   0  0  0  0  0  0  0  0  0  0  0  0
  1  2  2  0  0  0  0
  2  3  1  0  0  0  0
  2  4  1  0  0  0  0
  4  5  1  0  0  0  0
  5  6  1  0  0  0  0
  6  7  1  0  0  0  0
  7  8  1  0  0  0  0
M  END
> <ChemID>
100509

> <CAS>
110-49-6

> <Original_SMILES>
COCCOC(C)=O

> <preferred_name>
2-Methoxyethyl acetate

> <dsstox_substance_id>
DTXSID2025553

> <dsstox_compound_id>
DTXCID205553

> <qc_level>
DSSTox_Low

> <Canonical_QSARr>
COCCOC(C)=O

> <InChI_Code_QSARr>
InChI=1S/C5H10O3/c1-5(6)8-4-3-7-2/h3-4H2,1-2H3

> <InChI Key_QSARr>
XLLIQLLCWZCATF-UHFFFAOYSA-N

> <Salt_Solvent>


> <Salt_Solvent_ID>
0

> <MPID>
100519

> <Tr_1_Tst_0>
1

> <Ready_Biodeg>
1.0

$$$$
Row500
  Mrv171c012251911052D          

  6  5  0  0  0  0            999 V2000
    0.0018   -0.4119    0.0000 C   0  0  0  0  0  0  0  0  0  0  0  0
    0.7163    0.0006    0.0000 C   0  0  0  0  0  0  0  0  0  0  0  0
    1.4307   -0.4119    0.0000 C   0  0  0  0  0  0  0  0  0  0  0  0
    2.1452    0.0006    0.0000 C   0  0  0  0  0  0  0  0  0  0  0  0
    2.8597   -0.4119    0.0000 C   0  0  0  0  0  0  0  0  0  0  0  0
    3.5741    0.0006    0.0000 C   0  0  0  0  0  0  0  0  0  0  0  0
  1  2  1  0  0  0  0
  2  3  1  0  0  0  0
  3  4  1  0  0  0  0
  4  5  1  0  0  0  0
  5  6  1  0  0  0  0
M  END
> <ChemID>
100510

> <CAS>
110-54-3

> <Original_SMILES>
CCCCCC

> <preferred_name>
Hexane

> <dsstox_substance_id>
DTXSID0021917

> <dsstox_compound_id>
DTXCID001917

> <qc_level>
DSSTox_Low

> <Canonical_QSARr>
CCCCCC

> <InChI_Code_QSARr>
InChI=1S/C6H14/c1-3-5-6-4-2/h3-6H2,1-2H3

> <InChI Key_QSARr>
VLKZOEOYAKHREP-UHFFFAOYSA-N

> <Salt_Solvent>


> <Salt_Solvent_ID>
0

> <MPID>
100520

> <Tr_1_Tst_0>
0

> <Ready_Biodeg>
1.0

$$$$
Row501
  Mrv171c012251911052D          

  6  5  0  0  0  0            999 V2000
    0.0018   -0.4119    0.0000 C   0  0  0  0  0  0  0  0  0  0  0  0
    0.7163    0.0006    0.0000 C   0  0  0  0  0  0  0  0  0  0  0  0
    1.4307   -0.4119    0.0000 C   0  0  0  0  0  0  0  0  0  0  0  0
    2.1452    0.0006    0.0000 C   0  0  0  0  0  0  0  0  0  0  0  0
    2.8597   -0.4119    0.0000 C   0  0  0  0  0  0  0  0  0  0  0  0
    3.5741    0.0006    0.0000 N   0  0  0  0  0  0  0  0  0  0  0  0
  1  2  1  0  0  0  0
  2  3  1  0  0  0  0
  3  4  1  0  0  0  0
  4  5  1  0  0  0  0
  5  6  1  0  0  0  0
M  END
> <ChemID>
100511

> <CAS>
110-58-7

> <Original_SMILES>
CCCCCN

> <preferred_name>
Pentan-1-amine

> <dsstox_substance_id>
DTXSID0021919

> <dsstox_compound_id>
DTXCID801919

> <qc_level>
DSSTox_Low

> <Canonical_QSARr>
CCCCCN

> <InChI_Code_QSARr>
InChI=1S/C5H13N/c1-2-3-4-5-6/h2-6H2,1H3

> <InChI Key_QSARr>
DPBLXKKOBLCELK-UHFFFAOYSA-N

> <Salt_Solvent>


> <Salt_Solvent_ID>
0

> <MPID>
100521

> <Tr_1_Tst_0>
1

> <Ready_Biodeg>
1.0

$$$$
Row502
  Mrv171c012251911052D          

  6  5  0  0  0  0            999 V2000
    2.1452    0.0006    0.0000 C   0  0  0  0  0  0  0  0  0  0  0  0
    1.4307   -0.4119    0.0000 C   0  0  0  0  0  0  0  0  0  0  0  0
    0.7163    0.0006    0.0000 C   0  0  0  0  0  0  0  0  0  0  0  0
    0.0018   -0.4119    0.0000 O   0  0  0  0  0  0  0  0  0  0  0  0
    2.8597   -0.4119    0.0000 C   0  0  0  0  0  0  0  0  0  0  0  0
    3.5741    0.0006    0.0000 O   0  0  0  0  0  0  0  0  0  0  0  0
  1  2  1  0  0  0  0
  2  3  1  0  0  0  0
  3  4  1  0  0  0  0
  1  5  1  0  0  0  0
  5  6  1  0  0  0  0
M  END
> <ChemID>
100512

> <CAS>
110-63-4

> <Original_SMILES>
OCCCCO

> <preferred_name>
1,4-Butanediol

> <dsstox_substance_id>
DTXSID2024666

> <dsstox_compound_id>
DTXCID804666

> <qc_level>
DSSTox_Low

> <Canonical_QSARr>
OCCCCO

> <InChI_Code_QSARr>
InChI=1S/C4H10O2/c5-3-1-2-4-6/h5-6H,1-4H2

> <InChI Key_QSARr>
WERYXYBDKMZEQL-UHFFFAOYSA-N

> <Salt_Solvent>


> <Salt_Solvent_ID>
0

> <MPID>
100522

> <Tr_1_Tst_0>
1

> <Ready_Biodeg>
1.0

$$$$
Row503
  Mrv171c012251911052D          

  6  5  0  0  0  0            999 V2000
    1.4345   -0.4105    0.0000 O   0  0  0  0  0  0  0  0  0  0  0  0
    0.7200    0.0020    0.0000 C   0  0  0  0  0  0  0  0  0  0  0  0
    0.0056   -0.4105    0.0000 C   0  0  0  0  0  0  0  0  0  0  0  0
    2.1490    0.0020    0.0000 C   0  0  0  0  0  0  0  0  0  0  0  0
    2.8635   -0.4105    0.0000 C   0  0  0  0  0  0  0  0  0  0  0  0
    3.5779    0.0020    0.0000 Cl  0  0  0  0  0  0  0  0  0  0  0  0
  1  2  1  0  0  0  0
  2  3  2  0  0  0  0
  1  4  1  0  0  0  0
  4  5  1  0  0  0  0
  5  6  1  0  0  0  0
M  END
> <ChemID>
100513

> <CAS>
110-75-8

> <Original_SMILES>
C=COCCCl

> <preferred_name>
2-Chloroethyl vinyl ether

> <dsstox_substance_id>
DTXSID0051570

> <dsstox_compound_id>
DTXCID4030122

> <qc_level>
DSSTox_Low

> <Canonical_QSARr>
C=COCCCl

> <InChI_Code_QSARr>
InChI=1S/C4H7ClO/c1-2-6-4-3-5/h2H,1,3-4H2

> <InChI Key_QSARr>
DNJRKFKAFWSXSE-UHFFFAOYSA-N

> <Salt_Solvent>


> <Salt_Solvent_ID>
0

> <MPID>
100523

> <Tr_1_Tst_0>
1

> <Ready_Biodeg>
1.0

$$$$
Row504
  Mrv171c012251911052D          

  6  5  0  0  0  0            999 V2000
    0.0018   -0.4119    0.0000 O   0  0  0  0  0  0  0  0  0  0  0  0
    0.7162    0.0006    0.0000 C   0  0  0  0  0  0  0  0  0  0  0  0
    1.4307   -0.4119    0.0000 C   0  0  0  0  0  0  0  0  0  0  0  0
    2.1452    0.0006    0.0000 O   0  0  0  0  0  0  0  0  0  0  0  0
    2.8597   -0.4119    0.0000 C   0  0  0  0  0  0  0  0  0  0  0  0
    3.5741    0.0006    0.0000 C   0  0  0  0  0  0  0  0  0  0  0  0
  1  2  1  0  0  0  0
  2  3  1  0  0  0  0
  3  4  1  0  0  0  0
  4  5  1  0  0  0  0
  5  6  1  0  0  0  0
M  END
> <ChemID>
100514

> <CAS>
110-80-5

> <Original_SMILES>
CCOCCO

> <preferred_name>
2-Ethoxyethanol

> <dsstox_substance_id>
DTXSID7024087

> <dsstox_compound_id>
DTXCID604087

> <qc_level>
DSSTox_Low

> <Canonical_QSARr>
CCOCCO

> <InChI_Code_QSARr>
InChI=1S/C4H10O2/c1-2-6-4-3-5/h5H,2-4H2,1H3

> <InChI Key_QSARr>
ZNQVEEAIQZEUHB-UHFFFAOYSA-N

> <Salt_Solvent>


> <Salt_Solvent_ID>
0

> <MPID>
100524

> <Tr_1_Tst_0>
0

> <Ready_Biodeg>
1.0

$$$$
Row505
  Mrv171c012251911052D          

  6  6  0  0  0  0            999 V2000
    1.4289   -0.4125    0.0000 C   0  0  0  0  0  0  0  0  0  0  0  0
    0.7145    0.0000    0.0000 C   0  0  0  0  0  0  0  0  0  0  0  0
    0.0000   -0.4125    0.0000 C   0  0  0  0  0  0  0  0  0  0  0  0
    0.0000   -1.2375    0.0000 C   0  0  0  0  0  0  0  0  0  0  0  0
    0.7145   -1.6500    0.0000 C   0  0  0  0  0  0  0  0  0  0  0  0
    1.4289   -1.2375    0.0000 C   0  0  0  0  0  0  0  0  0  0  0  0
  2  1  1  0  0  0  0
  3  2  1  0  0  0  0
  4  3  1  0  0  0  0
  5  4  1  0  0  0  0
  6  5  1  0  0  0  0
  1  6  1  0  0  0  0
M  END
> <ChemID>
100515

> <CAS>
110-82-7

> <Original_SMILES>
C1CCCCC1

> <preferred_name>
Cyclohexane

> <dsstox_substance_id>
DTXSID4021923

> <dsstox_compound_id>
DTXCID701923

> <qc_level>
DSSTox_Low

> <Canonical_QSARr>
C1CCCCC1

> <InChI_Code_QSARr>
InChI=1S/C6H12/c1-2-4-6-5-3-1/h1-6H2

> <InChI Key_QSARr>
XDTMQSROBMDMFD-UHFFFAOYSA-N

> <Salt_Solvent>


> <Salt_Solvent_ID>
0

> <MPID>
100525

> <Tr_1_Tst_0>
1

> <Ready_Biodeg>
0.0

$$$$
Row506
  Mrv171c012251911052D          

  6  6  0  0  0  0            999 V2000
    1.4289   -0.4125    0.0000 C   0  0  0  0  0  0  0  0  0  0  0  0
    0.7145    0.0000    0.0000 N   0  0  0  0  0  0  0  0  0  0  0  0
    0.0000   -0.4125    0.0000 C   0  0  0  0  0  0  0  0  0  0  0  0
    0.0000   -1.2375    0.0000 C   0  0  0  0  0  0  0  0  0  0  0  0
    0.7145   -1.6500    0.0000 N   0  0  0  0  0  0  0  0  0  0  0  0
    1.4289   -1.2375    0.0000 C   0  0  0  0  0  0  0  0  0  0  0  0
  2  1  1  0  0  0  0
  3  2  1  0  0  0  0
  4  3  1  0  0  0  0
  5  4  1  0  0  0  0
  6  5  1  0  0  0  0
  1  6  1  0  0  0  0
M  END
> <ChemID>
100516

> <CAS>
110-85-0

> <Original_SMILES>
C1CNCCN1

> <preferred_name>
Piperazine

> <dsstox_substance_id>
DTXSID1021164

> <dsstox_compound_id>
DTXCID701164

> <qc_level>
DSSTox_High

> <Canonical_QSARr>
C1CNCCN1

> <InChI_Code_QSARr>
InChI=1S/C4H10N2/c1-2-6-4-3-5-1/h5-6H,1-4H2

> <InChI Key_QSARr>
GLUUGHFHXGJENI-UHFFFAOYSA-N

> <Salt_Solvent>


> <Salt_Solvent_ID>
0

> <MPID>
100526

> <Tr_1_Tst_0>
1

> <Ready_Biodeg>
0.0

$$$$
Row507
  Mrv171c012251911052D          

  6  6  0  0  0  0            999 V2000
    1.4289   -0.4125    0.0000 N   0  0  0  0  0  0  0  0  0  0  0  0
    0.7145    0.0000    0.0000 C   0  0  0  0  0  0  0  0  0  0  0  0
    0.0000   -0.4125    0.0000 C   0  0  0  0  0  0  0  0  0  0  0  0
    0.0000   -1.2375    0.0000 C   0  0  0  0  0  0  0  0  0  0  0  0
    0.7145   -1.6500    0.0000 C   0  0  0  0  0  0  0  0  0  0  0  0
    1.4289   -1.2375    0.0000 C   0  0  0  0  0  0  0  0  0  0  0  0
  2  1  1  0  0  0  0
  3  2  2  0  0  0  0
  4  3  1  0  0  0  0
  5  4  2  0  0  0  0
  6  5  1  0  0  0  0
  1  6  2  0  0  0  0
M  END
> <ChemID>
100517

> <CAS>
110-86-1

> <Original_SMILES>
c1cccc[n]1

> <preferred_name>
Pyridine

> <dsstox_substance_id>
DTXSID9021924

> <dsstox_compound_id>
DTXCID101924

> <qc_level>
DSSTox_Low

> <Canonical_QSARr>
C1=CC=CC=N1

> <InChI_Code_QSARr>
InChI=1S/C5H5N/c1-2-4-6-5-3-1/h1-5H

> <InChI Key_QSARr>
JUJWROOIHBZHMG-UHFFFAOYSA-N

> <Salt_Solvent>


> <Salt_Solvent_ID>
0

> <MPID>
100527

> <Tr_1_Tst_0>
1

> <Ready_Biodeg>
1.0

$$$$
Row508
  Mrv171c012251911052D          

  6  6  0  0  0  0            999 V2000
    1.4289   -0.4125    0.0000 C   0  0  0  0  0  0  0  0  0  0  0  0
    0.7145    0.0000    0.0000 C   0  0  0  0  0  0  0  0  0  0  0  0
    0.0000   -0.4125    0.0000 C   0  0  0  0  0  0  0  0  0  0  0  0
    0.0000   -1.2375    0.0000 N   0  0  0  0  0  0  0  0  0  0  0  0
    0.7145   -1.6500    0.0000 C   0  0  0  0  0  0  0  0  0  0  0  0
    1.4289   -1.2375    0.0000 C   0  0  0  0  0  0  0  0  0  0  0  0
  2  1  1  0  0  0  0
  3  2  1  0  0  0  0
  4  3  1  0  0  0  0
  5  4  1  0  0  0  0
  6  5  1  0  0  0  0
  1  6  1  0  0  0  0
M  END
> <ChemID>
100518

> <CAS>
110-89-4

> <Original_SMILES>
C1CCCCN1

> <preferred_name>
Piperidine

> <dsstox_substance_id>
DTXSID6021165

> <dsstox_compound_id>
DTXCID101165

> <qc_level>
DSSTox_Low

> <Canonical_QSARr>
C1CCCCN1

> <InChI_Code_QSARr>
InChI=1S/C5H11N/c1-2-4-6-5-3-1/h6H,1-5H2

> <InChI Key_QSARr>
NQRYJNQNLNOLGT-UHFFFAOYSA-N

> <Salt_Solvent>


> <Salt_Solvent_ID>
0

> <MPID>
100528

> <Tr_1_Tst_0>
0

> <Ready_Biodeg>
1.0

$$$$
Row509
  Mrv171c012251911052D          

  6  6  0  0  0  0            999 V2000
    1.4289   -0.4125    0.0000 C   0  0  0  0  0  0  0  0  0  0  0  0
    0.7145    0.0000    0.0000 N   0  0  0  0  0  0  0  0  0  0  0  0
    0.0000   -0.4125    0.0000 C   0  0  0  0  0  0  0  0  0  0  0  0
    0.0000   -1.2375    0.0000 C   0  0  0  0  0  0  0  0  0  0  0  0
    0.7145   -1.6500    0.0000 O   0  0  0  0  0  0  0  0  0  0  0  0
    1.4289   -1.2375    0.0000 C   0  0  0  0  0  0  0  0  0  0  0  0
  2  1  1  0  0  0  0
  3  2  1  0  0  0  0
  4  3  1  0  0  0  0
  5  4  1  0  0  0  0
  6  5  1  0  0  0  0
  1  6  1  0  0  0  0
M  END
> <ChemID>
100519

> <CAS>
110-91-8

> <Original_SMILES>
C1COCCN1

> <preferred_name>
Morpholine

> <dsstox_substance_id>
DTXSID2025688

> <dsstox_compound_id>
DTXCID305688

> <qc_level>
DSSTox_High

> <Canonical_QSARr>
C1COCCN1

> <InChI_Code_QSARr>
InChI=1S/C4H9NO/c1-3-6-4-2-5-1/h5H,1-4H2

> <InChI Key_QSARr>
YNAVUWVOSKDBBP-UHFFFAOYSA-N

> <Salt_Solvent>


> <Salt_Solvent_ID>
0

> <MPID>
100529

> <Tr_1_Tst_0>
1

> <Ready_Biodeg>
0.0

$$$$
Row510
  Mrv171c012251911052D          

  9  8  0  0  0  0            999 V2000
    2.1414   -0.8256    0.0000 N   0  0  0  0  0  0  0  0  0  0  0  0
    1.4269   -0.4131    0.0000 C   0  0  0  0  0  0  0  0  0  0  0  0
    0.7124   -0.8256    0.0000 C   0  0  0  0  0  0  0  0  0  0  0  0
   -0.0020   -0.4131    0.0000 C   0  0  0  0  0  0  0  0  0  0  0  0
    0.7124   -1.6506    0.0000 C   0  0  0  0  0  0  0  0  0  0  0  0
    2.8558   -0.4131    0.0000 C   0  0  0  0  0  0  0  0  0  0  0  0
    3.5703   -0.8256    0.0000 C   0  0  0  0  0  0  0  0  0  0  0  0
    4.2848   -0.4131    0.0000 C   0  0  0  0  0  0  0  0  0  0  0  0
    3.5703   -1.6506    0.0000 C   0  0  0  0  0  0  0  0  0  0  0  0
  1  2  1  0  0  0  0
  2  3  1  0  0  0  0
  3  4  1  0  0  0  0
  3  5  1  0  0  0  0
  1  6  1  0  0  0  0
  6  7  1  0  0  0  0
  7  8  1  0  0  0  0
  7  9  1  0  0  0  0
M  END
> <ChemID>
100520

> <CAS>
110-96-3

> <Original_SMILES>
CC(C)CNCC(C)C

> <preferred_name>
Diisobutylamine

> <dsstox_substance_id>
DTXSID5025079

> <dsstox_compound_id>
DTXCID205079

> <qc_level>
DSSTox_Low

> <Canonical_QSARr>
CC(C)CNCC(C)C

> <InChI_Code_QSARr>
InChI=1S/C8H19N/c1-7(2)5-9-6-8(3)4/h7-9H,5-6H2,1-4H3

> <InChI Key_QSARr>
NJBCRXCAPCODGX-UHFFFAOYSA-N

> <Salt_Solvent>


> <Salt_Solvent_ID>
0

> <MPID>
100530

> <Tr_1_Tst_0>
1

> <Ready_Biodeg>
1.0

$$$$
Row511
  Mrv171c012251911052D          

  9  8  0  0  0  0            999 V2000
    2.8520   -0.0009    0.0000 C   0  0  0  0  0  0  0  0  0  0  0  0
    2.1375   -0.4134    0.0000 O   0  0  0  0  0  0  0  0  0  0  0  0
    1.4230   -0.0009    0.0000 C   0  0  0  0  0  0  0  0  0  0  0  0
    0.7085   -0.4134    0.0000 C   0  0  0  0  0  0  0  0  0  0  0  0
   -0.0059   -0.0009    0.0000 O   0  0  0  0  0  0  0  0  0  0  0  0
    0.7085   -1.2384    0.0000 C   0  0  0  0  0  0  0  0  0  0  0  0
    3.5664   -0.4134    0.0000 C   0  0  0  0  0  0  0  0  0  0  0  0
    4.2809   -0.0009    0.0000 O   0  0  0  0  0  0  0  0  0  0  0  0
    3.5664   -1.2384    0.0000 C   0  0  0  0  0  0  0  0  0  0  0  0
  1  2  1  0  0  0  0
  2  3  1  0  0  0  0
  3  4  1  0  0  0  0
  4  5  1  0  0  0  0
  4  6  1  0  0  0  0
  1  7  1  0  0  0  0
  7  8  1  0  0  0  0
  7  9  1  0  0  0  0
M  END
> <ChemID>
100521

> <CAS>
110-98-5

> <Original_SMILES>
CC(O)COCC(C)O

> <preferred_name>
1,1'-Oxybis-2-propanol

> <dsstox_substance_id>
DTXSID7026863

> <dsstox_compound_id>
DTXCID206863

> <qc_level>
DSSTox_High

> <Canonical_QSARr>
CC(O)COCC(C)O

> <InChI_Code_QSARr>
InChI=1S/C6H14O3/c1-5(7)3-9-4-6(2)8/h5-8H,3-4H2,1-2H3

> <InChI Key_QSARr>
AZUXKVXMJOIAOF-UHFFFAOYSA-N

> <Salt_Solvent>


> <Salt_Solvent_ID>
0

> <MPID>
100531

> <Tr_1_Tst_0>
1

> <Ready_Biodeg>
0.0

$$$$
Row512
  Mrv171c012251911052D          

  9  8  0  0  0  0            999 V2000
   -0.1500   -1.1151    0.0000 C   0  0  0  0  0  0  0  0  0  0  0  0
    0.5645   -0.7026    0.0000 C   0  0  0  0  0  0  0  0  0  0  0  0
    1.2790   -1.1151    0.0000 C   0  0  0  0  0  0  0  0  0  0  0  0
    1.9934   -0.7026    0.0000 C   0  0  0  0  0  0  0  0  0  0  0  0
    2.7079   -1.1151    0.0000 C   0  0  0  0  0  0  0  0  0  0  0  0
    3.4224   -0.7026    0.0000 C   0  0  0  0  0  0  0  0  0  0  0  0
    4.1368   -1.1151    0.0000 C   0  0  0  0  0  0  0  0  0  0  0  0
    4.8513   -0.7026    0.0000 C   0  0  0  0  0  0  0  0  0  0  0  0
    0.5645    0.1224    0.0000 O   0  0  0  0  0  0  0  0  0  0  0  0
  1  2  1  0  0  0  0
  2  3  1  0  0  0  0
  3  4  1  0  0  0  0
  4  5  1  0  0  0  0
  5  6  1  0  0  0  0
  6  7  1  0  0  0  0
  7  8  1  0  0  0  0
  2  9  2  0  0  0  0
M  END
> <ChemID>
100522

> <CAS>
111-13-7

> <Original_SMILES>
CCCCCCC(C)=O

> <preferred_name>
2-Octanone

> <dsstox_substance_id>
DTXSID4021927

> <dsstox_compound_id>
DTXCID301927

> <qc_level>
DSSTox_Low

> <Canonical_QSARr>
CCCCCCC(C)=O

> <InChI_Code_QSARr>
InChI=1S/C8H16O/c1-3-4-5-6-7-8(2)9/h3-7H2,1-2H3

> <InChI Key_QSARr>
ZPVFWPFBNIEHGJ-UHFFFAOYSA-N

> <Salt_Solvent>


> <Salt_Solvent_ID>
0

> <MPID>
100532

> <Tr_1_Tst_0>
0

> <Ready_Biodeg>
1.0

$$$$
Row513
  Mrv171c012251911052D          

  9  8  0  0  0  0            999 V2000
   -0.1500   -1.1151    0.0000 O   0  0  0  0  0  0  0  0  0  0  0  0
    0.5645   -0.7026    0.0000 C   0  0  0  0  0  0  0  0  0  0  0  0
    1.2790   -1.1151    0.0000 C   0  0  0  0  0  0  0  0  0  0  0  0
    1.9934   -0.7026    0.0000 C   0  0  0  0  0  0  0  0  0  0  0  0
    2.7079   -1.1151    0.0000 C   0  0  0  0  0  0  0  0  0  0  0  0
    3.4224   -0.7026    0.0000 C   0  0  0  0  0  0  0  0  0  0  0  0
    4.1368   -1.1151    0.0000 C   0  0  0  0  0  0  0  0  0  0  0  0
    4.8513   -0.7026    0.0000 C   0  0  0  0  0  0  0  0  0  0  0  0
    0.5645    0.1224    0.0000 O   0  0  0  0  0  0  0  0  0  0  0  0
  1  2  2  0  0  0  0
  2  3  1  0  0  0  0
  3  4  1  0  0  0  0
  4  5  1  0  0  0  0
  5  6  1  0  0  0  0
  6  7  1  0  0  0  0
  7  8  1  0  0  0  0
  2  9  1  0  0  0  0
M  END
> <ChemID>
100523

> <CAS>
111-14-8

> <Original_SMILES>
CCCCCCC(O)=O

> <preferred_name>
Heptanoic acid

> <dsstox_substance_id>
DTXSID2021600

> <dsstox_compound_id>
DTXCID301600

> <qc_level>
DSSTox_Low

> <Canonical_QSARr>
CCCCCCC(O)=O

> <InChI_Code_QSARr>
InChI=1S/C7H14O2/c1-2-3-4-5-6-7(8)9/h2-6H2,1H3,(H,8,9)

> <InChI Key_QSARr>
MNWFXJYAOYHMED-UHFFFAOYSA-N

> <Salt_Solvent>


> <Salt_Solvent_ID>
0

> <MPID>
100533

> <Tr_1_Tst_0>
1

> <Ready_Biodeg>
1.0

$$$$
Row514
  Mrv171c012251911052D          

  9  8  0  0  0  0            999 V2000
   -0.1480   -1.1158    0.0000 C   0  0  0  0  0  0  0  0  0  0  0  0
    0.5665   -0.7033    0.0000 C   0  0  0  0  0  0  0  0  0  0  0  0
    1.2810   -1.1158    0.0000 O   0  0  0  0  0  0  0  0  0  0  0  0
    1.9955   -0.7033    0.0000 C   0  0  0  0  0  0  0  0  0  0  0  0
    2.7099   -1.1158    0.0000 C   0  0  0  0  0  0  0  0  0  0  0  0
    3.4244   -0.7033    0.0000 O   0  0  0  0  0  0  0  0  0  0  0  0
    4.1389   -1.1158    0.0000 C   0  0  0  0  0  0  0  0  0  0  0  0
    4.8533   -0.7033    0.0000 C   0  0  0  0  0  0  0  0  0  0  0  0
    0.5665    0.1217    0.0000 O   0  0  0  0  0  0  0  0  0  0  0  0
  1  2  1  0  0  0  0
  2  3  1  0  0  0  0
  3  4  1  0  0  0  0
  4  5  1  0  0  0  0
  5  6  1  0  0  0  0
  6  7  1  0  0  0  0
  7  8  1  0  0  0  0
  2  9  2  0  0  0  0
M  END
> <ChemID>
100524

> <CAS>
111-15-9

> <Original_SMILES>
CCOCCOC(C)=O

> <preferred_name>
2-Ethoxyethyl acetate

> <dsstox_substance_id>
DTXSID9021928

> <dsstox_compound_id>
DTXCID701928

> <qc_level>
DSSTox_Low

> <Canonical_QSARr>
CCOCCOC(C)=O

> <InChI_Code_QSARr>
InChI=1S/C6H12O3/c1-3-8-4-5-9-6(2)7/h3-5H2,1-2H3

> <InChI Key_QSARr>
SVONRAPFKPVNKG-UHFFFAOYSA-N

> <Salt_Solvent>


> <Salt_Solvent_ID>
0

> <MPID>
100534

> <Tr_1_Tst_0>
1

> <Ready_Biodeg>
1.0

$$$$
Row515
  Mrv171c012251911052D          

  7  6  0  0  0  0            999 V2000
   -0.0018   -0.0582    0.0000 C   0  0  0  0  0  0  0  0  0  0  0  0
    0.7127   -0.4707    0.0000 C   0  0  0  0  0  0  0  0  0  0  0  0
    1.4272   -0.0582    0.0000 C   0  0  0  0  0  0  0  0  0  0  0  0
    2.1416   -0.4707    0.0000 C   0  0  0  0  0  0  0  0  0  0  0  0
    2.8561   -0.0582    0.0000 C   0  0  0  0  0  0  0  0  0  0  0  0
    3.5706   -0.4707    0.0000 C   0  0  0  0  0  0  0  0  0  0  0  0
    4.2850   -0.0582    0.0000 N   0  0  0  0  0  0  0  0  0  0  0  0
  1  2  1  0  0  0  0
  2  3  1  0  0  0  0
  3  4  1  0  0  0  0
  4  5  1  0  0  0  0
  5  6  1  0  0  0  0
  6  7  1  0  0  0  0
M  END
> <ChemID>
100525

> <CAS>
111-26-2

> <Original_SMILES>
CCCCCCN

> <preferred_name>
Hexylamine

> <dsstox_substance_id>
DTXSID3021930

> <dsstox_compound_id>
DTXCID801930

> <qc_level>
DSSTox_Low

> <Canonical_QSARr>
CCCCCCN

> <InChI_Code_QSARr>
InChI=1S/C6H15N/c1-2-3-4-5-6-7/h2-7H2,1H3

> <InChI Key_QSARr>
BMVXCPBXGZKUPN-UHFFFAOYSA-N

> <Salt_Solvent>


> <Salt_Solvent_ID>
0

> <MPID>
100535

> <Tr_1_Tst_0>
1

> <Ready_Biodeg>
1.0

$$$$
Row516
  Mrv171c012251911052D          

  7  6  0  0  0  0            999 V2000
   -0.0018   -0.0582    0.0000 C   0  0  0  0  0  0  0  0  0  0  0  0
    0.7127   -0.4707    0.0000 C   0  0  0  0  0  0  0  0  0  0  0  0
    1.4272   -0.0582    0.0000 C   0  0  0  0  0  0  0  0  0  0  0  0
    2.1416   -0.4707    0.0000 C   0  0  0  0  0  0  0  0  0  0  0  0
    2.8561   -0.0582    0.0000 C   0  0  0  0  0  0  0  0  0  0  0  0
    3.5706   -0.4707    0.0000 C   0  0  0  0  0  0  0  0  0  0  0  0
    4.2850   -0.0582    0.0000 O   0  0  0  0  0  0  0  0  0  0  0  0
  1  2  1  0  0  0  0
  2  3  1  0  0  0  0
  3  4  1  0  0  0  0
  4  5  1  0  0  0  0
  5  6  1  0  0  0  0
  6  7  1  0  0  0  0
M  END
> <ChemID>
100526

> <CAS>
111-27-3

> <Original_SMILES>
CCCCCCO

> <preferred_name>
1-Hexanol

> <dsstox_substance_id>
DTXSID8021931

> <dsstox_compound_id>
DTXCID201931

> <qc_level>
DSSTox_Low

> <Canonical_QSARr>
CCCCCCO

> <InChI_Code_QSARr>
InChI=1S/C6H14O/c1-2-3-4-5-6-7/h7H,2-6H2,1H3

> <InChI Key_QSARr>
ZSIAUFGUXNUGDI-UHFFFAOYSA-N

> <Salt_Solvent>


> <Salt_Solvent_ID>
0

> <MPID>
100536

> <Tr_1_Tst_0>
0

> <Ready_Biodeg>
1.0

$$$$
Row517
  Mrv171c012251911052D          

  7  6  0  0  0  0            999 V2000
    0.7071   -0.4133    0.0000 C   0  0  0  0  0  0  0  0  0  0  0  0
   -0.0074   -0.0008    0.0000 O   0  0  0  0  0  0  0  0  0  0  0  0
    1.4216   -0.0008    0.0000 C   0  0  0  0  0  0  0  0  0  0  0  0
    2.1360   -0.4133    0.0000 C   0  0  0  0  0  0  0  0  0  0  0  0
    2.8505   -0.0008    0.0000 C   0  0  0  0  0  0  0  0  0  0  0  0
    3.5650   -0.4133    0.0000 C   0  0  0  0  0  0  0  0  0  0  0  0
    4.2794   -0.0008    0.0000 O   0  0  0  0  0  0  0  0  0  0  0  0
  1  2  1  0  0  0  0
  1  3  1  0  0  0  0
  3  4  1  0  0  0  0
  4  5  1  0  0  0  0
  5  6  1  0  0  0  0
  6  7  1  0  0  0  0
M  END
> <ChemID>
100527

> <CAS>
111-29-5

> <Original_SMILES>
OCCCCCO

> <preferred_name>
1,5-Pentanediol

> <dsstox_substance_id>
DTXSID2041256

> <dsstox_compound_id>
DTXCID0021256

> <qc_level>
DSSTox_Low

> <Canonical_QSARr>
OCCCCCO

> <InChI_Code_QSARr>
InChI=1S/C5H12O2/c6-4-2-1-3-5-7/h6-7H,1-5H2

> <InChI Key_QSARr>
ALQSHHUCVQOPAS-UHFFFAOYSA-N

> <Salt_Solvent>


> <Salt_Solvent_ID>
0

> <MPID>
100537

> <Tr_1_Tst_0>
1

> <Ready_Biodeg>
1.0

$$$$
Row518
  Mrv171c012251911052D          

  7  6  0  0  0  0            999 V2000
    2.1510   -0.4717    0.0000 N   0  0  0  0  0  0  0  0  0  0  0  0
    1.4365   -0.0592    0.0000 C   0  0  0  0  0  0  0  0  0  0  0  0
    0.7220   -0.4717    0.0000 C   0  0  0  0  0  0  0  0  0  0  0  0
    0.0075   -0.0592    0.0000 N   0  0  0  0  0  0  0  0  0  0  0  0
    2.8654   -0.0592    0.0000 C   0  0  0  0  0  0  0  0  0  0  0  0
    3.5799   -0.4717    0.0000 C   0  0  0  0  0  0  0  0  0  0  0  0
    4.2944   -0.0592    0.0000 N   0  0  0  0  0  0  0  0  0  0  0  0
  1  2  1  0  0  0  0
  2  3  1  0  0  0  0
  3  4  1  0  0  0  0
  1  5  1  0  0  0  0
  5  6  1  0  0  0  0
  6  7  1  0  0  0  0
M  END
> <ChemID>
100528

> <CAS>
111-40-0

> <Original_SMILES>
NCCNCCN

> <preferred_name>
Diethylenetriamine

> <dsstox_substance_id>
DTXSID2025050

> <dsstox_compound_id>
DTXCID005050

> <qc_level>
DSSTox_Low

> <Canonical_QSARr>
NCCNCCN

> <InChI_Code_QSARr>
InChI=1S/C4H13N3/c5-1-3-7-4-2-6/h7H,1-6H2

> <InChI Key_QSARr>
RPNUMPOLZDHAAY-UHFFFAOYSA-N

> <Salt_Solvent>


> <Salt_Solvent_ID>
0

> <MPID>
100538

> <Tr_1_Tst_0>
1

> <Ready_Biodeg>
0.0

$$$$
Row519
  Mrv171c012251911052D          

  7  6  0  0  0  0            999 V2000
    2.1510   -0.4717    0.0000 N   0  0  0  0  0  0  0  0  0  0  0  0
    1.4365   -0.0592    0.0000 C   0  0  0  0  0  0  0  0  0  0  0  0
    0.7220   -0.4717    0.0000 C   0  0  0  0  0  0  0  0  0  0  0  0
    0.0075   -0.0592    0.0000 O   0  0  0  0  0  0  0  0  0  0  0  0
    2.8654   -0.0592    0.0000 C   0  0  0  0  0  0  0  0  0  0  0  0
    3.5799   -0.4717    0.0000 C   0  0  0  0  0  0  0  0  0  0  0  0
    4.2944   -0.0592    0.0000 N   0  0  0  0  0  0  0  0  0  0  0  0
  1  2  1  0  0  0  0
  2  3  1  0  0  0  0
  3  4  1  0  0  0  0
  1  5  1  0  0  0  0
  5  6  1  0  0  0  0
  6  7  1  0  0  0  0
M  END
> <ChemID>
100529

> <CAS>
111-41-1

> <Original_SMILES>
NCCNCCO

> <preferred_name>
N-(Hydroxyethyl)ethylenediamine

> <dsstox_substance_id>
DTXSID7025423

> <dsstox_compound_id>
DTXCID105423

> <qc_level>
DSSTox_High

> <Canonical_QSARr>
NCCNCCO

> <InChI_Code_QSARr>
InChI=1S/C4H12N2O/c5-1-2-6-3-4-7/h6-7H,1-5H2

> <InChI Key_QSARr>
LHIJANUOQQMGNT-UHFFFAOYSA-N

> <Salt_Solvent>


> <Salt_Solvent_ID>
0

> <MPID>
100539

> <Tr_1_Tst_0>
1

> <Ready_Biodeg>
0.0

$$$$
Row520
  Mrv171c012251911052D          

  7  6  0  0  0  0            999 V2000
    0.0075   -0.0592    0.0000 O   0  0  0  0  0  0  0  0  0  0  0  0
    0.7220   -0.4717    0.0000 C   0  0  0  0  0  0  0  0  0  0  0  0
    1.4365   -0.0592    0.0000 C   0  0  0  0  0  0  0  0  0  0  0  0
    2.1510   -0.4717    0.0000 N   0  0  0  0  0  0  0  0  0  0  0  0
    2.8654   -0.0592    0.0000 C   0  0  0  0  0  0  0  0  0  0  0  0
    3.5799   -0.4717    0.0000 C   0  0  0  0  0  0  0  0  0  0  0  0
    4.2944   -0.0592    0.0000 O   0  0  0  0  0  0  0  0  0  0  0  0
  1  2  1  0  0  0  0
  2  3  1  0  0  0  0
  3  4  1  0  0  0  0
  4  5  1  0  0  0  0
  5  6  1  0  0  0  0
  6  7  1  0  0  0  0
M  END
> <ChemID>
100530

> <CAS>
111-42-2

> <Original_SMILES>
OCCNCCO

> <preferred_name>
Diethanolamine

> <dsstox_substance_id>
DTXSID3021932

> <dsstox_compound_id>
DTXCID601932

> <qc_level>
DSSTox_High

> <Canonical_QSARr>
OCCNCCO

> <InChI_Code_QSARr>
InChI=1S/C4H11NO2/c6-3-1-5-2-4-7/h5-7H,1-4H2

> <InChI Key_QSARr>
ZBCBWPMODOFKDW-UHFFFAOYSA-N

> <Salt_Solvent>


> <Salt_Solvent_ID>
0

> <MPID>
100540

> <Tr_1_Tst_0>
0

> <Ready_Biodeg>
1.0

$$$$
Row521
  Mrv171c012251911052D          

  7  6  0  0  0  0            999 V2000
    0.0075   -0.0592    0.0000 Cl  0  0  0  0  0  0  0  0  0  0  0  0
    0.7220   -0.4717    0.0000 C   0  0  0  0  0  0  0  0  0  0  0  0
    1.4365   -0.0592    0.0000 C   0  0  0  0  0  0  0  0  0  0  0  0
    2.1510   -0.4717    0.0000 O   0  0  0  0  0  0  0  0  0  0  0  0
    2.8654   -0.0592    0.0000 C   0  0  0  0  0  0  0  0  0  0  0  0
    3.5799   -0.4717    0.0000 C   0  0  0  0  0  0  0  0  0  0  0  0
    4.2944   -0.0592    0.0000 Cl  0  0  0  0  0  0  0  0  0  0  0  0
  1  2  1  0  0  0  0
  2  3  1  0  0  0  0
  3  4  1  0  0  0  0
  4  5  1  0  0  0  0
  5  6  1  0  0  0  0
  6  7  1  0  0  0  0
M  END
> <ChemID>
100531

> <CAS>
111-44-4

> <Original_SMILES>
ClCCOCCCl

> <preferred_name>
Bis(2-chloroethyl) ether

> <dsstox_substance_id>
DTXSID9020168

> <dsstox_compound_id>
DTXCID70168

> <qc_level>
DSSTox_Low

> <Canonical_QSARr>
ClCCOCCCl

> <InChI_Code_QSARr>
InChI=1S/C4H8Cl2O/c5-1-3-7-4-2-6/h1-4H2

> <InChI Key_QSARr>
ZNSMNVMLTJELDZ-UHFFFAOYSA-N

> <Salt_Solvent>


> <Salt_Solvent_ID>
0

> <MPID>
100541

> <Tr_1_Tst_0>
1

> <Ready_Biodeg>
0.0

$$$$
Row522
  Mrv171c012251911052D          

  7  6  0  0  0  0            999 V2000
    0.0075   -0.0592    0.0000 O   0  0  0  0  0  0  0  0  0  0  0  0
    0.7220   -0.4717    0.0000 C   0  0  0  0  0  0  0  0  0  0  0  0
    1.4365   -0.0592    0.0000 C   0  0  0  0  0  0  0  0  0  0  0  0
    2.1510   -0.4717    0.0000 O   0  0  0  0  0  0  0  0  0  0  0  0
    2.8654   -0.0592    0.0000 C   0  0  0  0  0  0  0  0  0  0  0  0
    3.5799   -0.4717    0.0000 C   0  0  0  0  0  0  0  0  0  0  0  0
    4.2944   -0.0592    0.0000 O   0  0  0  0  0  0  0  0  0  0  0  0
  1  2  1  0  0  0  0
  2  3  1  0  0  0  0
  3  4  1  0  0  0  0
  4  5  1  0  0  0  0
  5  6  1  0  0  0  0
  6  7  1  0  0  0  0
M  END
> <ChemID>
100532

> <CAS>
111-46-6

> <Original_SMILES>
OCCOCCO

> <preferred_name>
Diethylene glycol

> <dsstox_substance_id>
DTXSID8020462

> <dsstox_compound_id>
DTXCID20462

> <qc_level>
DSSTox_Low

> <Canonical_QSARr>
OCCOCCO

> <InChI_Code_QSARr>
InChI=1S/C4H10O3/c5-1-3-7-4-2-6/h5-6H,1-4H2

> <InChI Key_QSARr>
MTHSVFCYNBDYFN-UHFFFAOYSA-N

> <Salt_Solvent>


> <Salt_Solvent_ID>
0

> <MPID>
100542

> <Tr_1_Tst_0>
1

> <Ready_Biodeg>
1.0

$$$$
Row523
  Mrv171c012251911052D          

  7  6  0  0  0  0            999 V2000
    0.7176   -0.4688    0.0000 C   0  0  0  0  0  0  0  0  0  0  0  0
    0.0031   -0.0563    0.0000 O   0  0  0  0  0  0  0  0  0  0  0  0
    1.4320   -0.0563    0.0000 C   0  0  0  0  0  0  0  0  0  0  0  0
    2.1465   -0.4688    0.0000 S   0  0  0  0  0  0  0  0  0  0  0  0
    2.8610   -0.0563    0.0000 C   0  0  0  0  0  0  0  0  0  0  0  0
    3.5754   -0.4688    0.0000 C   0  0  0  0  0  0  0  0  0  0  0  0
    4.2899   -0.0563    0.0000 O   0  0  0  0  0  0  0  0  0  0  0  0
  1  2  1  0  0  0  0
  1  3  1  0  0  0  0
  3  4  1  0  0  0  0
  4  5  1  0  0  0  0
  5  6  1  0  0  0  0
  6  7  1  0  0  0  0
M  END
> <ChemID>
100533

> <CAS>
111-48-8

> <Original_SMILES>
OCCSCCO

> <preferred_name>
2,2'-Thiobisethanol

> <dsstox_substance_id>
DTXSID6026878

> <dsstox_compound_id>
DTXCID506878

> <qc_level>
DSSTox_Low

> <Canonical_QSARr>
OCCSCCO

> <InChI_Code_QSARr>
InChI=1S/C4H10O2S/c5-1-3-7-4-2-6/h5-6H,1-4H2

> <InChI Key_QSARr>
YODZTKMDCQEPHD-UHFFFAOYSA-N

> <Salt_Solvent>


> <Salt_Solvent_ID>
0

> <MPID>
100543

> <Tr_1_Tst_0>
1

> <Ready_Biodeg>
0.0

$$$$
Row524
  Mrv171c012251911052D          

 10  9  0  0  0  0            999 V2000
    2.1431   -0.8247    0.0000 C   0  0  0  0  0  0  0  0  0  0  0  0
    1.4286   -1.2372    0.0000 O   0  0  0  0  0  0  0  0  0  0  0  0
    0.7141   -0.8247    0.0000 C   0  0  0  0  0  0  0  0  0  0  0  0
   -0.0003   -1.2372    0.0000 C   0  0  0  0  0  0  0  0  0  0  0  0
    0.7141    0.0003    0.0000 O   0  0  0  0  0  0  0  0  0  0  0  0
    2.8575   -1.2372    0.0000 C   0  0  0  0  0  0  0  0  0  0  0  0
    3.5720   -0.8247    0.0000 O   0  0  0  0  0  0  0  0  0  0  0  0
    4.2865   -1.2372    0.0000 C   0  0  0  0  0  0  0  0  0  0  0  0
    5.0010   -0.8247    0.0000 C   0  0  0  0  0  0  0  0  0  0  0  0
    4.2865   -2.0622    0.0000 O   0  0  0  0  0  0  0  0  0  0  0  0
  1  2  1  0  0  0  0
  2  3  1  0  0  0  0
  3  4  1  0  0  0  0
  3  5  2  0  0  0  0
  1  6  1  0  0  0  0
  6  7  1  0  0  0  0
  7  8  1  0  0  0  0
  8  9  1  0  0  0  0
  8 10  2  0  0  0  0
M  END
> <ChemID>
100534

> <CAS>
111-55-7

> <Original_SMILES>
CC(=O)OCCOC(C)=O

> <preferred_name>
1,2-Ethanediol diacetate

> <dsstox_substance_id>
DTXSID0026880

> <dsstox_compound_id>
DTXCID606880

> <qc_level>
DSSTox_Low

> <Canonical_QSARr>
CC(=O)OCCOC(C)=O

> <InChI_Code_QSARr>
InChI=1S/C6H10O4/c1-5(7)9-3-4-10-6(2)8/h3-4H2,1-2H3

> <InChI Key_QSARr>
JTXMVXSTHSMVQF-UHFFFAOYSA-N

> <Salt_Solvent>


> <Salt_Solvent_ID>
0

> <MPID>
100544

> <Tr_1_Tst_0>
0

> <Ready_Biodeg>
1.0

$$$$
Row525
  Mrv171c012251911052D          

  8  7  0  0  0  0            999 V2000
   -0.0057   -0.4133    0.0000 C   0  0  0  0  0  0  0  0  0  0  0  0
    0.7088   -0.0008    0.0000 C   0  0  0  0  0  0  0  0  0  0  0  0
    1.4233   -0.4133    0.0000 C   0  0  0  0  0  0  0  0  0  0  0  0
    2.1378   -0.0008    0.0000 C   0  0  0  0  0  0  0  0  0  0  0  0
    2.8522   -0.4133    0.0000 C   0  0  0  0  0  0  0  0  0  0  0  0
    3.5667   -0.0008    0.0000 C   0  0  0  0  0  0  0  0  0  0  0  0
    4.2812   -0.4133    0.0000 C   0  0  0  0  0  0  0  0  0  0  0  0
    4.9956   -0.0008    0.0000 C   0  0  0  0  0  0  0  0  0  0  0  0
  1  2  1  0  0  0  0
  2  3  1  0  0  0  0
  3  4  1  0  0  0  0
  4  5  1  0  0  0  0
  5  6  1  0  0  0  0
  6  7  1  0  0  0  0
  7  8  1  0  0  0  0
M  END
> <ChemID>
100535

> <CAS>
111-65-9

> <Original_SMILES>
CCCCCCCC

> <preferred_name>
Octane

> <dsstox_substance_id>
DTXSID0026882

> <dsstox_compound_id>
DTXCID406882

> <qc_level>
DSSTox_Low

> <Canonical_QSARr>
CCCCCCCC

> <InChI_Code_QSARr>
InChI=1S/C8H18/c1-3-5-7-8-6-4-2/h3-8H2,1-2H3

> <InChI Key_QSARr>
TVMXDCGIABBOFY-UHFFFAOYSA-N

> <Salt_Solvent>


> <Salt_Solvent_ID>
0

> <MPID>
100545

> <Tr_1_Tst_0>
1

> <Ready_Biodeg>
1.0

$$$$
Row526
  Mrv171c012251911052D          

  8  7  0  0  0  0            999 V2000
   -0.0058   -1.2350    0.0000 N   0  0  0  0  0  0  0  0  0  0  0  0
    0.7087   -0.8225    0.0000 C   0  0  0  0  0  0  0  0  0  0  0  0
    1.4232   -0.4100    0.0000 C   0  0  0  0  0  0  0  0  0  0  0  0
    2.1376   -0.8225    0.0000 C   0  0  0  0  0  0  0  0  0  0  0  0
    2.8521   -0.4100    0.0000 C   0  0  0  0  0  0  0  0  0  0  0  0
    3.5666   -0.8225    0.0000 C   0  0  0  0  0  0  0  0  0  0  0  0
    4.2811   -0.4100    0.0000 C   0  0  0  0  0  0  0  0  0  0  0  0
    4.9955    0.0025    0.0000 N   0  0  0  0  0  0  0  0  0  0  0  0
  1  2  3  0  0  0  0
  2  3  1  0  0  0  0
  3  4  1  0  0  0  0
  4  5  1  0  0  0  0
  5  6  1  0  0  0  0
  6  7  1  0  0  0  0
  7  8  3  0  0  0  0
M  END
> <ChemID>
100536

> <CAS>
111-69-3

> <Original_SMILES>
N#CCCCCC#N

> <preferred_name>
Hexanedinitrile

> <dsstox_substance_id>
DTXSID3021936

> <dsstox_compound_id>
DTXCID201936

> <qc_level>
DSSTox_Low

> <Canonical_QSARr>
N#CCCCCC#N

> <InChI_Code_QSARr>
InChI=1S/C6H8N2/c7-5-3-1-2-4-6-8/h1-4H2

> <InChI Key_QSARr>
BTGRAWJCKBQKAO-UHFFFAOYSA-N

> <Salt_Solvent>


> <Salt_Solvent_ID>
0

> <MPID>
100546

> <Tr_1_Tst_0>
1

> <Ready_Biodeg>
1.0

$$$$
Row527
  Mrv171c012251911052D          

  8  7  0  0  0  0            999 V2000
    0.0018   -0.4115    0.0000 C   0  0  0  0  0  0  0  0  0  0  0  0
    0.7163    0.0010    0.0000 C   0  0  0  0  0  0  0  0  0  0  0  0
    1.4308   -0.4115    0.0000 C   0  0  0  0  0  0  0  0  0  0  0  0
    2.1452    0.0010    0.0000 C   0  0  0  0  0  0  0  0  0  0  0  0
    2.8597   -0.4115    0.0000 C   0  0  0  0  0  0  0  0  0  0  0  0
    3.5742    0.0010    0.0000 C   0  0  0  0  0  0  0  0  0  0  0  0
    4.2887   -0.4115    0.0000 C   0  0  0  0  0  0  0  0  0  0  0  0
    5.0031    0.0010    0.0000 O   0  0  0  0  0  0  0  0  0  0  0  0
  1  2  1  0  0  0  0
  2  3  1  0  0  0  0
  3  4  1  0  0  0  0
  4  5  1  0  0  0  0
  5  6  1  0  0  0  0
  6  7  1  0  0  0  0
  7  8  1  0  0  0  0
M  END
> <ChemID>
100537

> <CAS>
111-70-6

> <Original_SMILES>
CCCCCCCO

> <preferred_name>
1-Heptanol

> <dsstox_substance_id>
DTXSID8021937

> <dsstox_compound_id>
DTXCID601937

> <qc_level>
DSSTox_Low

> <Canonical_QSARr>
CCCCCCCO

> <InChI_Code_QSARr>
InChI=1S/C7H16O/c1-2-3-4-5-6-7-8/h8H,2-7H2,1H3

> <InChI Key_QSARr>
BBMCTIGTTCKYKF-UHFFFAOYSA-N

> <Salt_Solvent>


> <Salt_Solvent_ID>
0

> <MPID>
100547

> <Tr_1_Tst_0>
1

> <Ready_Biodeg>
1.0

$$$$
Row528
  Mrv171c012251911052D          

  8  7  0  0  0  0            999 V2000
   -0.0008   -0.4114    0.0000 O   0  0  0  0  0  0  0  0  0  0  0  0
    0.7136    0.0011    0.0000 C   0  0  0  0  0  0  0  0  0  0  0  0
    1.4281   -0.4114    0.0000 C   0  0  0  0  0  0  0  0  0  0  0  0
    2.1426    0.0011    0.0000 O   0  0  0  0  0  0  0  0  0  0  0  0
    2.8570   -0.4114    0.0000 C   0  0  0  0  0  0  0  0  0  0  0  0
    3.5715    0.0011    0.0000 C   0  0  0  0  0  0  0  0  0  0  0  0
    4.2860   -0.4114    0.0000 C   0  0  0  0  0  0  0  0  0  0  0  0
    5.0005    0.0011    0.0000 C   0  0  0  0  0  0  0  0  0  0  0  0
  1  2  1  0  0  0  0
  2  3  1  0  0  0  0
  3  4  1  0  0  0  0
  4  5  1  0  0  0  0
  5  6  1  0  0  0  0
  6  7  1  0  0  0  0
  7  8  1  0  0  0  0
M  END
> <ChemID>
100538

> <CAS>
111-76-2

> <Original_SMILES>
CCCCOCCO

> <preferred_name>
2-Butoxyethanol

> <dsstox_substance_id>
DTXSID1024097

> <dsstox_compound_id>
DTXCID904097

> <qc_level>
DSSTox_Low

> <Canonical_QSARr>
CCCCOCCO

> <InChI_Code_QSARr>
InChI=1S/C6H14O2/c1-2-3-5-8-6-4-7/h7H,2-6H2,1H3

> <InChI Key_QSARr>
POAOYUHQDCAZBD-UHFFFAOYSA-N

> <Salt_Solvent>


> <Salt_Solvent_ID>
0

> <MPID>
100548

> <Tr_1_Tst_0>
0

> <Ready_Biodeg>
1.0

$$$$
Row529
  Mrv171c012251911052D          

  9  8  0  0  0  0            999 V2000
    0.7161   -0.4579    0.0000 C   0  0  0  0  0  0  0  0  0  0  0  0
    0.0017   -0.0454    0.0000 C   0  0  0  0  0  0  0  0  0  0  0  0
    1.4306   -0.0454    0.0000 C   0  0  0  0  0  0  0  0  0  0  0  0
    2.1451   -0.4579    0.0000 C   0  0  0  0  0  0  0  0  0  0  0  0
    2.8595   -0.0454    0.0000 C   0  0  0  0  0  0  0  0  0  0  0  0
    3.5740   -0.4579    0.0000 C   0  0  0  0  0  0  0  0  0  0  0  0
    4.2885   -0.0454    0.0000 C   0  0  0  0  0  0  0  0  0  0  0  0
    5.0030   -0.4579    0.0000 C   0  0  0  0  0  0  0  0  0  0  0  0
    5.7174   -0.0454    0.0000 C   0  0  0  0  0  0  0  0  0  0  0  0
  1  2  1  0  0  0  0
  1  3  1  0  0  0  0
  3  4  1  0  0  0  0
  4  5  1  0  0  0  0
  5  6  1  0  0  0  0
  6  7  1  0  0  0  0
  7  8  1  0  0  0  0
  8  9  1  0  0  0  0
M  END
> <ChemID>
100539

> <CAS>
111-84-2

> <Original_SMILES>
CCCCCCCCC

> <preferred_name>
Nonane

> <dsstox_substance_id>
DTXSID9025796

> <dsstox_compound_id>
DTXCID005796

> <qc_level>
DSSTox_Low

> <Canonical_QSARr>
CCCCCCCCC

> <InChI_Code_QSARr>
InChI=1S/C9H20/c1-3-5-7-9-8-6-4-2/h3-9H2,1-2H3

> <InChI Key_QSARr>
BKIMMITUMNQMOS-UHFFFAOYSA-N

> <Salt_Solvent>


> <Salt_Solvent_ID>
0

> <MPID>
100549

> <Tr_1_Tst_0>
1

> <Ready_Biodeg>
1.0

$$$$
Row530
  Mrv171c012251911052D          

  9  8  0  0  0  0            999 V2000
    0.0017   -0.0454    0.0000 C   0  0  0  0  0  0  0  0  0  0  0  0
    0.7161   -0.4579    0.0000 C   0  0  0  0  0  0  0  0  0  0  0  0
    1.4306   -0.0454    0.0000 C   0  0  0  0  0  0  0  0  0  0  0  0
    2.1451   -0.4579    0.0000 C   0  0  0  0  0  0  0  0  0  0  0  0
    2.8595   -0.0454    0.0000 C   0  0  0  0  0  0  0  0  0  0  0  0
    3.5740   -0.4579    0.0000 C   0  0  0  0  0  0  0  0  0  0  0  0
    4.2885   -0.0454    0.0000 C   0  0  0  0  0  0  0  0  0  0  0  0
    5.0030   -0.4579    0.0000 C   0  0  0  0  0  0  0  0  0  0  0  0
    5.7174   -0.0454    0.0000 Cl  0  0  0  0  0  0  0  0  0  0  0  0
  1  2  1  0  0  0  0
  2  3  1  0  0  0  0
  3  4  1  0  0  0  0
  4  5  1  0  0  0  0
  5  6  1  0  0  0  0
  6  7  1  0  0  0  0
  7  8  1  0  0  0  0
  8  9  1  0  0  0  0
M  END
> <ChemID>
100540

> <CAS>
111-85-3

> <Original_SMILES>
CCCCCCCCCl

> <preferred_name>
1-Chlorooctane

> <dsstox_substance_id>
DTXSID0021543

> <dsstox_compound_id>
DTXCID501543

> <qc_level>
DSSTox_Low

> <Canonical_QSARr>
CCCCCCCCCl

> <InChI_Code_QSARr>
InChI=1S/C8H17Cl/c1-2-3-4-5-6-7-8-9/h2-8H2,1H3

> <InChI Key_QSARr>
CNDHHGUSRIZDSL-UHFFFAOYSA-N

> <Salt_Solvent>


> <Salt_Solvent_ID>
0

> <MPID>
100550

> <Tr_1_Tst_0>
1

> <Ready_Biodeg>
1.0

$$$$
Row531
  Mrv171c012251911052D          

  9  8  0  0  0  0            999 V2000
    0.0017   -0.0454    0.0000 C   0  0  0  0  0  0  0  0  0  0  0  0
    0.7161   -0.4579    0.0000 C   0  0  0  0  0  0  0  0  0  0  0  0
    1.4306   -0.0454    0.0000 C   0  0  0  0  0  0  0  0  0  0  0  0
    2.1451   -0.4579    0.0000 C   0  0  0  0  0  0  0  0  0  0  0  0
    2.8595   -0.0454    0.0000 C   0  0  0  0  0  0  0  0  0  0  0  0
    3.5740   -0.4579    0.0000 C   0  0  0  0  0  0  0  0  0  0  0  0
    4.2885   -0.0454    0.0000 C   0  0  0  0  0  0  0  0  0  0  0  0
    5.0030   -0.4579    0.0000 C   0  0  0  0  0  0  0  0  0  0  0  0
    5.7174   -0.0454    0.0000 O   0  0  0  0  0  0  0  0  0  0  0  0
  1  2  1  0  0  0  0
  2  3  1  0  0  0  0
  3  4  1  0  0  0  0
  4  5  1  0  0  0  0
  5  6  1  0  0  0  0
  6  7  1  0  0  0  0
  7  8  1  0  0  0  0
  8  9  1  0  0  0  0
M  END
> <ChemID>
100541

> <CAS>
111-87-5

> <Original_SMILES>
CCCCCCCCO

> <preferred_name>
1-Octanol

> <dsstox_substance_id>
DTXSID7021940

> <dsstox_compound_id>
DTXCID101940

> <qc_level>
DSSTox_Low

> <Canonical_QSARr>
CCCCCCCCO

> <InChI_Code_QSARr>
InChI=1S/C8H18O/c1-2-3-4-5-6-7-8-9/h9H,2-8H2,1H3

> <InChI Key_QSARr>
KBPLFHHGFOOTCA-UHFFFAOYSA-N

> <Salt_Solvent>


> <Salt_Solvent_ID>
0

> <MPID>
100551

> <Tr_1_Tst_0>
1

> <Ready_Biodeg>
1.0

$$$$
Row532
  Mrv171c012251911052D          

  9  8  0  0  0  0            999 V2000
    2.8595   -0.0454    0.0000 N   0  0  0  0  0  0  0  0  0  0  0  0
    2.1451   -0.4579    0.0000 C   0  0  0  0  0  0  0  0  0  0  0  0
    1.4306   -0.0454    0.0000 C   0  0  0  0  0  0  0  0  0  0  0  0
    0.7161   -0.4579    0.0000 C   0  0  0  0  0  0  0  0  0  0  0  0
    0.0017   -0.0454    0.0000 C   0  0  0  0  0  0  0  0  0  0  0  0
    3.5740   -0.4579    0.0000 C   0  0  0  0  0  0  0  0  0  0  0  0
    4.2885   -0.0454    0.0000 C   0  0  0  0  0  0  0  0  0  0  0  0
    5.0030   -0.4579    0.0000 C   0  0  0  0  0  0  0  0  0  0  0  0
    5.7174   -0.0454    0.0000 C   0  0  0  0  0  0  0  0  0  0  0  0
  1  2  1  0  0  0  0
  2  3  1  0  0  0  0
  3  4  1  0  0  0  0
  4  5  1  0  0  0  0
  1  6  1  0  0  0  0
  6  7  1  0  0  0  0
  7  8  1  0  0  0  0
  8  9  1  0  0  0  0
M  END
> <ChemID>
100542

> <CAS>
111-92-2

> <Original_SMILES>
CCCCNCCCC

> <preferred_name>
N-Butyl-1-butanamine

> <dsstox_substance_id>
DTXSID7024952

> <dsstox_compound_id>
DTXCID504952

> <qc_level>
DSSTox_Low

> <Canonical_QSARr>
CCCCNCCCC

> <InChI_Code_QSARr>
InChI=1S/C8H19N/c1-3-5-7-9-8-6-4-2/h9H,3-8H2,1-2H3

> <InChI Key_QSARr>
JQVDAXLFBXTEQA-UHFFFAOYSA-N

> <Salt_Solvent>


> <Salt_Solvent_ID>
0

> <MPID>
100552

> <Tr_1_Tst_0>
0

> <Ready_Biodeg>
1.0

$$$$
Row533
  Mrv171c012251911052D          

  9  8  0  0  0  0            999 V2000
    0.7260   -0.3189    0.0000 C   0  0  0  0  0  0  0  0  0  0  0  0
    0.0115    0.0936    0.0000 N   0  0  0  0  0  0  0  0  0  0  0  0
    1.4405   -0.7314    0.0000 C   0  0  0  0  0  0  0  0  0  0  0  0
    2.1550   -0.3189    0.0000 C   0  0  0  0  0  0  0  0  0  0  0  0
    2.8694   -0.7314    0.0000 N   0  0  0  0  0  0  0  0  0  0  0  0
    3.5839   -0.3189    0.0000 C   0  0  0  0  0  0  0  0  0  0  0  0
    4.2984   -0.7314    0.0000 C   0  0  0  0  0  0  0  0  0  0  0  0
    5.0128   -0.3189    0.0000 C   0  0  0  0  0  0  0  0  0  0  0  0
    5.7273    0.0936    0.0000 N   0  0  0  0  0  0  0  0  0  0  0  0
  1  2  3  0  0  0  0
  1  3  1  0  0  0  0
  3  4  1  0  0  0  0
  4  5  1  0  0  0  0
  5  6  1  0  0  0  0
  6  7  1  0  0  0  0
  7  8  1  0  0  0  0
  8  9  3  0  0  0  0
M  END
> <ChemID>
100543

> <CAS>
111-94-4

> <Original_SMILES>
N#CCCNCCC#N

> <preferred_name>
3,3'-Iminobispropanenitrile

> <dsstox_substance_id>
DTXSID2041464

> <dsstox_compound_id>
DTXCID0021464

> <qc_level>
DSSTox_Low

> <Canonical_QSARr>
N#CCCNCCC#N

> <InChI_Code_QSARr>
InChI=1S/C6H9N3/c7-3-1-5-9-6-2-4-8/h9H,1-2,5-6H2

> <InChI Key_QSARr>
SBAJRGRUGUQKAF-UHFFFAOYSA-N

> <Salt_Solvent>


> <Salt_Solvent_ID>
0

> <MPID>
100553

> <Tr_1_Tst_0>
1

> <Ready_Biodeg>
0.0

$$$$
Row534
  Mrv171c012251911052D          

 11 10  0  0  0  0            999 V2000
   -0.2580   -1.2022    0.0000 C   0  0  0  0  0  0  0  0  0  0  0  0
    0.4564   -0.7897    0.0000 C   0  0  0  0  0  0  0  0  0  0  0  0
    1.1709   -1.2022    0.0000 C   0  0  0  0  0  0  0  0  0  0  0  0
    1.8854   -0.7897    0.0000 C   0  0  0  0  0  0  0  0  0  0  0  0
    2.5999   -1.2022    0.0000 C   0  0  0  0  0  0  0  0  0  0  0  0
    3.3143   -0.7897    0.0000 C   0  0  0  0  0  0  0  0  0  0  0  0
    4.0288   -1.2022    0.0000 C   0  0  0  0  0  0  0  0  0  0  0  0
    4.7433   -0.7897    0.0000 C   0  0  0  0  0  0  0  0  0  0  0  0
    5.4577   -1.2022    0.0000 C   0  0  0  0  0  0  0  0  0  0  0  0
    6.1722   -0.7897    0.0000 O   0  0  0  0  0  0  0  0  0  0  0  0
    5.4577   -2.0272    0.0000 O   0  0  0  0  0  0  0  0  0  0  0  0
  1  2  1  0  0  0  0
  2  3  1  0  0  0  0
  3  4  1  0  0  0  0
  4  5  1  0  0  0  0
  5  6  1  0  0  0  0
  6  7  1  0  0  0  0
  7  8  1  0  0  0  0
  8  9  1  0  0  0  0
  9 10  2  0  0  0  0
  9 11  1  0  0  0  0
M  END
> <ChemID>
100544

> <CAS>
112-05-0

> <Original_SMILES>
CCCCCCCCC(O)=O

> <preferred_name>
Nonanoic acid

> <dsstox_substance_id>
DTXSID3021641

> <dsstox_compound_id>
DTXCID901641

> <qc_level>
DSSTox_Low

> <Canonical_QSARr>
CCCCCCCCC(O)=O

> <InChI_Code_QSARr>
InChI=1S/C9H18O2/c1-2-3-4-5-6-7-8-9(10)11/h2-8H2,1H3,(H,10,11)

> <InChI Key_QSARr>
FBUKVWPVBMHYJY-UHFFFAOYSA-N

> <Salt_Solvent>


> <Salt_Solvent_ID>
0

> <MPID>
100554

> <Tr_1_Tst_0>
1

> <Ready_Biodeg>
1.0

$$$$
Row535
  Mrv171c012251911052D          

 12 11  0  0  0  0            999 V2000
    2.6158   -1.1032    0.0000 C   0  0  0  0  0  0  0  0  0  0  0  0
    1.9013   -0.6907    0.0000 O   0  0  0  0  0  0  0  0  0  0  0  0
    1.1868   -1.1032    0.0000 C   0  0  0  0  0  0  0  0  0  0  0  0
    0.4724   -0.6907    0.0000 C   0  0  0  0  0  0  0  0  0  0  0  0
    1.1868   -1.9282    0.0000 O   0  0  0  0  0  0  0  0  0  0  0  0
    3.3303   -0.6907    0.0000 C   0  0  0  0  0  0  0  0  0  0  0  0
    4.0447   -1.1032    0.0000 O   0  0  0  0  0  0  0  0  0  0  0  0
    4.7592   -0.6907    0.0000 C   0  0  0  0  0  0  0  0  0  0  0  0
    5.4737   -1.1032    0.0000 C   0  0  0  0  0  0  0  0  0  0  0  0
    6.1881   -0.6907    0.0000 O   0  0  0  0  0  0  0  0  0  0  0  0
    6.9026   -1.1032    0.0000 C   0  0  0  0  0  0  0  0  0  0  0  0
    7.6171   -0.6907    0.0000 C   0  0  0  0  0  0  0  0  0  0  0  0
  1  2  1  0  0  0  0
  2  3  1  0  0  0  0
  3  4  1  0  0  0  0
  3  5  2  0  0  0  0
  1  6  1  0  0  0  0
  6  7  1  0  0  0  0
  7  8  1  0  0  0  0
  8  9  1  0  0  0  0
  9 10  1  0  0  0  0
 10 11  1  0  0  0  0
 11 12  1  0  0  0  0
M  END
> <ChemID>
100545

> <CAS>
112-15-2

> <Original_SMILES>
CCOCCOCCOC(C)=O

> <preferred_name>
2-(2-Ethoxyethoxy)ethyl acetate

> <dsstox_substance_id>
DTXSID6026905

> <dsstox_compound_id>
DTXCID406905

> <qc_level>
DSSTox_Low

> <Canonical_QSARr>
CCOCCOCCOC(C)=O

> <InChI_Code_QSARr>
InChI=1S/C8H16O4/c1-3-10-4-5-11-6-7-12-8(2)9/h3-7H2,1-2H3

> <InChI Key_QSARr>
FPZWZCWUIYYYBU-UHFFFAOYSA-N

> <Salt_Solvent>


> <Salt_Solvent_ID>
0

> <MPID>
100555

> <Tr_1_Tst_0>
1

> <Ready_Biodeg>
1.0

$$$$
Row536
  Mrv171c012251911052D          

 15 14  0  0  0  0            999 V2000
    1.4413   -0.5491    0.0000 C   0  0  0  0  0  0  0  0  0  0  0  0
    0.7269   -0.1366    0.0000 N   0  0  0  0  0  0  0  0  0  0  0  0
    0.0124   -0.5491    0.0000 C   0  0  0  0  0  0  0  0  0  0  0  0
    0.7269    0.6884    0.0000 C   0  0  0  0  0  0  0  0  0  0  0  0
    2.1558   -0.1366    0.0000 C   0  0  0  0  0  0  0  0  0  0  0  0
    2.8703   -0.5491    0.0000 C   0  0  0  0  0  0  0  0  0  0  0  0
    3.5847   -0.1366    0.0000 C   0  0  0  0  0  0  0  0  0  0  0  0
    4.2992   -0.5491    0.0000 C   0  0  0  0  0  0  0  0  0  0  0  0
    5.0137   -0.1366    0.0000 C   0  0  0  0  0  0  0  0  0  0  0  0
    5.7282   -0.5491    0.0000 C   0  0  0  0  0  0  0  0  0  0  0  0
    6.4426   -0.1366    0.0000 C   0  0  0  0  0  0  0  0  0  0  0  0
    7.1571   -0.5491    0.0000 C   0  0  0  0  0  0  0  0  0  0  0  0
    7.8716   -0.1366    0.0000 C   0  0  0  0  0  0  0  0  0  0  0  0
    8.5860   -0.5491    0.0000 C   0  0  0  0  0  0  0  0  0  0  0  0
    9.3005   -0.1366    0.0000 C   0  0  0  0  0  0  0  0  0  0  0  0
  1  2  1  0  0  0  0
  2  3  1  0  0  0  0
  2  4  1  0  0  0  0
  1  5  1  0  0  0  0
  5  6  1  0  0  0  0
  6  7  1  0  0  0  0
  7  8  1  0  0  0  0
  8  9  1  0  0  0  0
  9 10  1  0  0  0  0
 10 11  1  0  0  0  0
 11 12  1  0  0  0  0
 12 13  1  0  0  0  0
 13 14  1  0  0  0  0
 14 15  1  0  0  0  0
M  END
> <ChemID>
100546

> <CAS>
112-18-5

> <Original_SMILES>
CCCCCCCCCCCCN(C)C

> <preferred_name>
N,N-Dimethyldodecan-1-amine

> <dsstox_substance_id>
DTXSID1026906

> <dsstox_compound_id>
DTXCID806906

> <qc_level>
DSSTox_High

> <Canonical_QSARr>
CCCCCCCCCCCCN(C)C

> <InChI_Code_QSARr>
InChI=1S/C14H31N/c1-4-5-6-7-8-9-10-11-12-13-14-15(2)3/h4-14H2,1-3H3

> <InChI Key_QSARr>
YWFWDNVOPHGWMX-UHFFFAOYSA-N

> <Salt_Solvent>


> <Salt_Solvent_ID>
0

> <MPID>
100556

> <Tr_1_Tst_0>
0

> <Ready_Biodeg>
1.0

$$$$
Row537
  Mrv171c012251911052D          

 10  9  0  0  0  0            999 V2000
    0.0041   -0.4123    0.0000 O   0  0  0  0  0  0  0  0  0  0  0  0
    0.7185    0.0002    0.0000 C   0  0  0  0  0  0  0  0  0  0  0  0
    1.4330   -0.4123    0.0000 C   0  0  0  0  0  0  0  0  0  0  0  0
    2.1475    0.0002    0.0000 O   0  0  0  0  0  0  0  0  0  0  0  0
    2.8620   -0.4123    0.0000 C   0  0  0  0  0  0  0  0  0  0  0  0
    3.5764    0.0002    0.0000 C   0  0  0  0  0  0  0  0  0  0  0  0
    4.2909   -0.4123    0.0000 O   0  0  0  0  0  0  0  0  0  0  0  0
    5.0054    0.0002    0.0000 C   0  0  0  0  0  0  0  0  0  0  0  0
    5.7198   -0.4123    0.0000 C   0  0  0  0  0  0  0  0  0  0  0  0
    6.4343    0.0002    0.0000 O   0  0  0  0  0  0  0  0  0  0  0  0
  1  2  1  0  0  0  0
  2  3  1  0  0  0  0
  3  4  1  0  0  0  0
  4  5  1  0  0  0  0
  5  6  1  0  0  0  0
  6  7  1  0  0  0  0
  7  8  1  0  0  0  0
  8  9  1  0  0  0  0
  9 10  1  0  0  0  0
M  END
> <ChemID>
100547

> <CAS>
112-27-6

> <Original_SMILES>
OCCOCCOCCO

> <preferred_name>
Triethylene glycol

> <dsstox_substance_id>
DTXSID4021393

> <dsstox_compound_id>
DTXCID601393

> <qc_level>
DSSTox_Low

> <Canonical_QSARr>
OCCOCCOCCO

> <InChI_Code_QSARr>
InChI=1S/C6H14O4/c7-1-3-9-5-6-10-4-2-8/h7-8H,1-6H2

> <InChI Key_QSARr>
ZIBGPFATKBEMQZ-UHFFFAOYSA-N

> <Salt_Solvent>


> <Salt_Solvent_ID>
0

> <MPID>
100557

> <Tr_1_Tst_0>
1

> <Ready_Biodeg>
1.0

$$$$
Row538
  Mrv171c012251911052D          

 11 10  0  0  0  0            999 V2000
   -0.0043   -0.0383    0.0000 C   0  0  0  0  0  0  0  0  0  0  0  0
    0.7102   -0.4508    0.0000 C   0  0  0  0  0  0  0  0  0  0  0  0
    1.4246   -0.0383    0.0000 C   0  0  0  0  0  0  0  0  0  0  0  0
    2.1391   -0.4508    0.0000 C   0  0  0  0  0  0  0  0  0  0  0  0
    2.8536   -0.0383    0.0000 C   0  0  0  0  0  0  0  0  0  0  0  0
    3.5680   -0.4508    0.0000 C   0  0  0  0  0  0  0  0  0  0  0  0
    4.2825   -0.0383    0.0000 C   0  0  0  0  0  0  0  0  0  0  0  0
    4.9970   -0.4508    0.0000 C   0  0  0  0  0  0  0  0  0  0  0  0
    5.7115   -0.0383    0.0000 C   0  0  0  0  0  0  0  0  0  0  0  0
    6.4259   -0.4508    0.0000 C   0  0  0  0  0  0  0  0  0  0  0  0
    7.1404   -0.0383    0.0000 O   0  0  0  0  0  0  0  0  0  0  0  0
  1  2  1  0  0  0  0
  2  3  1  0  0  0  0
  3  4  1  0  0  0  0
  4  5  1  0  0  0  0
  5  6  1  0  0  0  0
  6  7  1  0  0  0  0
  7  8  1  0  0  0  0
  8  9  1  0  0  0  0
  9 10  1  0  0  0  0
 10 11  1  0  0  0  0
M  END
> <ChemID>
100548

> <CAS>
112-30-1

> <Original_SMILES>
CCCCCCCCCCO

> <preferred_name>
1-Decanol

> <dsstox_substance_id>
DTXSID7021946

> <dsstox_compound_id>
DTXCID501946

> <qc_level>
DSSTox_Low

> <Canonical_QSARr>
CCCCCCCCCCO

> <InChI_Code_QSARr>
InChI=1S/C10H22O/c1-2-3-4-5-6-7-8-9-10-11/h11H,2-10H2,1H3

> <InChI Key_QSARr>
MWKFXSUHUHTGQN-UHFFFAOYSA-N

> <Salt_Solvent>


> <Salt_Solvent_ID>
0

> <MPID>
100558

> <Tr_1_Tst_0>
1

> <Ready_Biodeg>
1.0

$$$$
Row539
  Mrv171c012251911052D          

 11 10  0  0  0  0            999 V2000
   -0.0043   -0.0383    0.0000 C   0  0  0  0  0  0  0  0  0  0  0  0
    0.7102   -0.4508    0.0000 C   0  0  0  0  0  0  0  0  0  0  0  0
    1.4246   -0.0383    0.0000 C   0  0  0  0  0  0  0  0  0  0  0  0
    2.1391   -0.4508    0.0000 C   0  0  0  0  0  0  0  0  0  0  0  0
    2.8536   -0.0383    0.0000 C   0  0  0  0  0  0  0  0  0  0  0  0
    3.5680   -0.4508    0.0000 C   0  0  0  0  0  0  0  0  0  0  0  0
    4.2825   -0.0383    0.0000 C   0  0  0  0  0  0  0  0  0  0  0  0
    4.9970   -0.4508    0.0000 C   0  0  0  0  0  0  0  0  0  0  0  0
    5.7115   -0.0383    0.0000 C   0  0  0  0  0  0  0  0  0  0  0  0
    6.4259   -0.4508    0.0000 C   0  0  0  0  0  0  0  0  0  0  0  0
    7.1404   -0.0383    0.0000 O   0  0  0  0  0  0  0  0  0  0  0  0
  1  2  1  0  0  0  0
  2  3  1  0  0  0  0
  3  4  1  0  0  0  0
  4  5  1  0  0  0  0
  5  6  1  0  0  0  0
  6  7  1  0  0  0  0
  7  8  1  0  0  0  0
  8  9  1  0  0  0  0
  9 10  1  0  0  0  0
 10 11  2  0  0  0  0
M  END
> <ChemID>
100549

> <CAS>
112-31-2

> <Original_SMILES>
CCCCCCCCCC=O

> <preferred_name>
Decanal

> <dsstox_substance_id>
DTXSID4021553

> <dsstox_compound_id>
DTXCID801553

> <qc_level>
DSSTox_Low

> <Canonical_QSARr>
CCCCCCCCCC=O

> <InChI_Code_QSARr>
InChI=1S/C10H20O/c1-2-3-4-5-6-7-8-9-10-11/h10H,2-9H2,1H3

> <InChI Key_QSARr>
KSMVZQYAVGTKIV-UHFFFAOYSA-N

> <Salt_Solvent>


> <Salt_Solvent_ID>
0

> <MPID>
100559

> <Tr_1_Tst_0>
1

> <Ready_Biodeg>
1.0

$$$$
Row540
  Mrv171c012251911052D          

 11 10  0  0  0  0            999 V2000
   -0.0043   -0.0383    0.0000 C   0  0  0  0  0  0  0  0  0  0  0  0
    0.7102   -0.4508    0.0000 C   0  0  0  0  0  0  0  0  0  0  0  0
    1.4246   -0.0383    0.0000 C   0  0  0  0  0  0  0  0  0  0  0  0
    2.1391   -0.4508    0.0000 C   0  0  0  0  0  0  0  0  0  0  0  0
    2.8536   -0.0383    0.0000 O   0  0  0  0  0  0  0  0  0  0  0  0
    3.5680   -0.4508    0.0000 C   0  0  0  0  0  0  0  0  0  0  0  0
    4.2825   -0.0383    0.0000 C   0  0  0  0  0  0  0  0  0  0  0  0
    4.9970   -0.4508    0.0000 O   0  0  0  0  0  0  0  0  0  0  0  0
    5.7115   -0.0383    0.0000 C   0  0  0  0  0  0  0  0  0  0  0  0
    6.4259   -0.4508    0.0000 C   0  0  0  0  0  0  0  0  0  0  0  0
    7.1404   -0.0383    0.0000 O   0  0  0  0  0  0  0  0  0  0  0  0
  1  2  1  0  0  0  0
  2  3  1  0  0  0  0
  3  4  1  0  0  0  0
  4  5  1  0  0  0  0
  5  6  1  0  0  0  0
  6  7  1  0  0  0  0
  7  8  1  0  0  0  0
  8  9  1  0  0  0  0
  9 10  1  0  0  0  0
 10 11  1  0  0  0  0
M  END
> <ChemID>
100550

> <CAS>
112-34-5

> <Original_SMILES>
CCCCOCCOCCO

> <preferred_name>
2-(2-Butoxyethoxy)ethanol

> <dsstox_substance_id>
DTXSID8021519

> <dsstox_compound_id>
DTXCID001519

> <qc_level>
DSSTox_Low

> <Canonical_QSARr>
CCCCOCCOCCO

> <InChI_Code_QSARr>
InChI=1S/C8H18O3/c1-2-3-5-10-7-8-11-6-4-9/h9H,2-8H2,1H3

> <InChI Key_QSARr>
OAYXUHPQHDHDDZ-UHFFFAOYSA-N

> <Salt_Solvent>


> <Salt_Solvent_ID>
0

> <MPID>
100560

> <Tr_1_Tst_0>
0

> <Ready_Biodeg>
1.0

$$$$
Row541
  Mrv171c012251911052D          

 13 12  0  0  0  0            999 V2000
    0.2704   -1.4264    0.0000 O   0  0  0  0  0  0  0  0  0  0  0  0
    0.9848   -1.0139    0.0000 C   0  0  0  0  0  0  0  0  0  0  0  0
    1.6993   -1.4264    0.0000 C   0  0  0  0  0  0  0  0  0  0  0  0
    2.4138   -1.0139    0.0000 C   0  0  0  0  0  0  0  0  0  0  0  0
    3.1282   -1.4264    0.0000 C   0  0  0  0  0  0  0  0  0  0  0  0
    3.8427   -1.0139    0.0000 C   0  0  0  0  0  0  0  0  0  0  0  0
    4.5572   -1.4264    0.0000 C   0  0  0  0  0  0  0  0  0  0  0  0
    5.2717   -1.0139    0.0000 C   0  0  0  0  0  0  0  0  0  0  0  0
    5.9861   -1.4264    0.0000 C   0  0  0  0  0  0  0  0  0  0  0  0
    6.7006   -1.0139    0.0000 C   0  0  0  0  0  0  0  0  0  0  0  0
    7.4151   -1.4264    0.0000 C   0  0  0  0  0  0  0  0  0  0  0  0
    8.1295   -1.0139    0.0000 C   0  0  0  0  0  0  0  0  0  0  0  0
    0.9848   -0.1889    0.0000 O   0  0  0  0  0  0  0  0  0  0  0  0
  1  2  2  0  0  0  0
  2  3  1  0  0  0  0
  3  4  1  0  0  0  0
  4  5  1  0  0  0  0
  5  6  1  0  0  0  0
  6  7  1  0  0  0  0
  7  8  1  0  0  0  0
  8  9  1  0  0  0  0
  9 10  1  0  0  0  0
 10 11  1  0  0  0  0
 11 12  1  0  0  0  0
  2 13  1  0  0  0  0
M  END
> <ChemID>
100551

> <CAS>
112-37-8

> <Original_SMILES>
CCCCCCCCCCC(O)=O

> <preferred_name>
Undecanoic acid

> <dsstox_substance_id>
DTXSID8021690

> <dsstox_compound_id>
DTXCID001690

> <qc_level>
DSSTox_Low

> <Canonical_QSARr>
CCCCCCCCCCC(O)=O

> <InChI_Code_QSARr>
InChI=1S/C11H22O2/c1-2-3-4-5-6-7-8-9-10-11(12)13/h2-10H2,1H3,(H,12,13)

> <InChI Key_QSARr>
ZDPHROOEEOARMN-UHFFFAOYSA-N

> <Salt_Solvent>


> <Salt_Solvent_ID>
0

> <MPID>
100561

> <Tr_1_Tst_0>
1

> <Ready_Biodeg>
1.0

$$$$
Row542
  Mrv171c012251911052D          

 12 11  0  0  0  0            999 V2000
   -0.0127   -0.4139    0.0000 C   0  0  0  0  0  0  0  0  0  0  0  0
    0.7018   -0.0014    0.0000 C   0  0  0  0  0  0  0  0  0  0  0  0
    1.4163   -0.4139    0.0000 C   0  0  0  0  0  0  0  0  0  0  0  0
    2.1307   -0.0014    0.0000 C   0  0  0  0  0  0  0  0  0  0  0  0
    2.8452   -0.4139    0.0000 C   0  0  0  0  0  0  0  0  0  0  0  0
    3.5597   -0.0014    0.0000 C   0  0  0  0  0  0  0  0  0  0  0  0
    4.2741   -0.4139    0.0000 C   0  0  0  0  0  0  0  0  0  0  0  0
    4.9886   -0.0014    0.0000 C   0  0  0  0  0  0  0  0  0  0  0  0
    5.7031   -0.4139    0.0000 C   0  0  0  0  0  0  0  0  0  0  0  0
    6.4176   -0.0014    0.0000 C   0  0  0  0  0  0  0  0  0  0  0  0
    7.1320   -0.4139    0.0000 C   0  0  0  0  0  0  0  0  0  0  0  0
    7.8465   -0.0014    0.0000 C   0  0  0  0  0  0  0  0  0  0  0  0
  1  2  1  0  0  0  0
  2  3  1  0  0  0  0
  3  4  1  0  0  0  0
  4  5  1  0  0  0  0
  5  6  1  0  0  0  0
  6  7  1  0  0  0  0
  7  8  1  0  0  0  0
  8  9  1  0  0  0  0
  9 10  1  0  0  0  0
 10 11  1  0  0  0  0
 11 12  1  0  0  0  0
M  END
> <ChemID>
100552

> <CAS>
112-40-3

> <Original_SMILES>
CCCCCCCCCCCC

> <preferred_name>
Dodecane

> <dsstox_substance_id>
DTXSID0026913

> <dsstox_compound_id>
DTXCID906913

> <qc_level>
DSSTox_Low

> <Canonical_QSARr>
CCCCCCCCCCCC

> <InChI_Code_QSARr>
InChI=1S/C12H26/c1-3-5-7-9-11-12-10-8-6-4-2/h3-12H2,1-2H3

> <InChI Key_QSARr>
SNRUBQQJIBEYMU-UHFFFAOYSA-N

> <Salt_Solvent>


> <Salt_Solvent_ID>
0

> <MPID>
100562

> <Tr_1_Tst_0>
1

> <Ready_Biodeg>
1.0

$$$$
Row543
  Mrv171c012251911052D          

 12 11  0  0  0  0            999 V2000
    0.7018   -0.0014    0.0000 C   0  0  0  0  0  0  0  0  0  0  0  0
   -0.0127   -0.4139    0.0000 O   0  0  0  0  0  0  0  0  0  0  0  0
    1.4163   -0.4139    0.0000 C   0  0  0  0  0  0  0  0  0  0  0  0
    2.1307   -0.0014    0.0000 C   0  0  0  0  0  0  0  0  0  0  0  0
    2.8452   -0.4139    0.0000 C   0  0  0  0  0  0  0  0  0  0  0  0
    3.5597   -0.0014    0.0000 C   0  0  0  0  0  0  0  0  0  0  0  0
    4.2741   -0.4139    0.0000 C   0  0  0  0  0  0  0  0  0  0  0  0
    4.9886   -0.0014    0.0000 C   0  0  0  0  0  0  0  0  0  0  0  0
    5.7031   -0.4139    0.0000 C   0  0  0  0  0  0  0  0  0  0  0  0
    6.4176   -0.0014    0.0000 C   0  0  0  0  0  0  0  0  0  0  0  0
    7.1320   -0.4139    0.0000 C   0  0  0  0  0  0  0  0  0  0  0  0
    7.8465   -0.0014    0.0000 C   0  0  0  0  0  0  0  0  0  0  0  0
  1  2  1  0  0  0  0
  1  3  1  0  0  0  0
  3  4  1  0  0  0  0
  4  5  1  0  0  0  0
  5  6  1  0  0  0  0
  6  7  1  0  0  0  0
  7  8  1  0  0  0  0
  8  9  1  0  0  0  0
  9 10  1  0  0  0  0
 10 11  1  0  0  0  0
 11 12  1  0  0  0  0
M  END
> <ChemID>
100553

> <CAS>
112-42-5

> <Original_SMILES>
CCCCCCCCCCCO

> <preferred_name>
1-Undecanol

> <dsstox_substance_id>
DTXSID0026915

> <dsstox_compound_id>
DTXCID706915

> <qc_level>
DSSTox_Low

> <Canonical_QSARr>
CCCCCCCCCCCO

> <InChI_Code_QSARr>
InChI=1S/C11H24O/c1-2-3-4-5-6-7-8-9-10-11-12/h12H,2-11H2,1H3

> <InChI Key_QSARr>
KJIOQYGWTQBHNH-UHFFFAOYSA-N

> <Salt_Solvent>


> <Salt_Solvent_ID>
0

> <MPID>
100563

> <Tr_1_Tst_0>
1

> <Ready_Biodeg>
1.0

$$$$
Row544
  Mrv171c012251911052D          

 13 12  0  0  0  0            999 V2000
    0.7075   -0.4480    0.0000 C   0  0  0  0  0  0  0  0  0  0  0  0
   -0.0070   -0.0355    0.0000 O   0  0  0  0  0  0  0  0  0  0  0  0
    1.4220   -0.0355    0.0000 C   0  0  0  0  0  0  0  0  0  0  0  0
    2.1364   -0.4480    0.0000 C   0  0  0  0  0  0  0  0  0  0  0  0
    2.8509   -0.0355    0.0000 C   0  0  0  0  0  0  0  0  0  0  0  0
    3.5654   -0.4480    0.0000 C   0  0  0  0  0  0  0  0  0  0  0  0
    4.2799   -0.0355    0.0000 C   0  0  0  0  0  0  0  0  0  0  0  0
    4.9943   -0.4480    0.0000 C   0  0  0  0  0  0  0  0  0  0  0  0
    5.7088   -0.0355    0.0000 C   0  0  0  0  0  0  0  0  0  0  0  0
    6.4233   -0.4480    0.0000 C   0  0  0  0  0  0  0  0  0  0  0  0
    7.1377   -0.0355    0.0000 C   0  0  0  0  0  0  0  0  0  0  0  0
    7.8522   -0.4480    0.0000 C   0  0  0  0  0  0  0  0  0  0  0  0
    8.5667   -0.0355    0.0000 C   0  0  0  0  0  0  0  0  0  0  0  0
  1  2  1  0  0  0  0
  1  3  1  0  0  0  0
  3  4  1  0  0  0  0
  4  5  1  0  0  0  0
  5  6  1  0  0  0  0
  6  7  1  0  0  0  0
  7  8  1  0  0  0  0
  8  9  1  0  0  0  0
  9 10  1  0  0  0  0
 10 11  1  0  0  0  0
 11 12  1  0  0  0  0
 12 13  1  0  0  0  0
M  END
> <ChemID>
100554

> <CAS>
112-53-8

> <Original_SMILES>
CCCCCCCCCCCCO

> <preferred_name>
1-Dodecanol

> <dsstox_substance_id>
DTXSID5026918

> <dsstox_compound_id>
DTXCID906918

> <qc_level>
DSSTox_Low

> <Canonical_QSARr>
CCCCCCCCCCCCO

> <InChI_Code_QSARr>
InChI=1S/C12H26O/c1-2-3-4-5-6-7-8-9-10-11-12-13/h13H,2-12H2,1H3

> <InChI Key_QSARr>
LQZZUXJYWNFBMV-UHFFFAOYSA-N

> <Salt_Solvent>


> <Salt_Solvent_ID>
0

> <MPID>
100564

> <Tr_1_Tst_0>
0

> <Ready_Biodeg>
1.0

$$$$
Row545
  Mrv171c012251911052D          

 21 20  0  0  0  0            999 V2000
    1.3776    9.0454    0.0000 C   0  0  0  0  0  0  0  0  0  0  0  0
    1.3776    8.2204    0.0000 C   0  0  0  0  0  0  0  0  0  0  0  0
    2.0921    7.8079    0.0000 C   0  0  0  0  0  0  0  0  0  0  0  0
    2.0921    6.9829    0.0000 C   0  0  0  0  0  0  0  0  0  0  0  0
    2.8066    6.5704    0.0000 C   0  0  0  0  0  0  0  0  0  0  0  0
    2.8066    5.7454    0.0000 C   0  0  0  0  0  0  0  0  0  0  0  0
    3.5211    5.3329    0.0000 C   0  0  0  0  0  0  0  0  0  0  0  0
    3.5211    4.5079    0.0000 C   0  0  0  0  0  0  0  0  0  0  0  0
    4.2355    4.0954    0.0000 C   0  0  0  0  0  0  0  0  0  0  0  0
    4.2355    3.2704    0.0000 C   0  0  0  0  0  0  0  0  0  0  0  0
    4.9500    2.8579    0.0000 C   0  0  0  0  0  0  0  0  0  0  0  0
    5.6645    3.2704    0.0000 C   0  0  0  0  0  0  0  0  0  0  0  0
    6.3789    2.8579    0.0000 C   0  0  0  0  0  0  0  0  0  0  0  0
    7.0934    3.2704    0.0000 C   0  0  0  0  0  0  0  0  0  0  0  0
    7.8079    2.8579    0.0000 C   0  0  0  0  0  0  0  0  0  0  0  0
    8.5224    3.2704    0.0000 C   0  0  0  0  0  0  0  0  0  0  0  0
    9.2368    2.8579    0.0000 C   0  0  0  0  0  0  0  0  0  0  0  0
    9.9513    3.2704    0.0000 C   0  0  0  0  0  0  0  0  0  0  0  0
    9.9513    4.0954    0.0000 O   0  0  0  0  0  0  0  0  0  0  0  0
   10.6658    2.8579    0.0000 O   0  0  0  0  0  0  0  0  0  0  0  0
   11.3802    3.2704    0.0000 C   0  0  0  0  0  0  0  0  0  0  0  0
  1  2  1  0  0  0  0
  2  3  1  0  0  0  0
  3  4  1  0  0  0  0
  4  5  1  0  0  0  0
  5  6  1  0  0  0  0
  6  7  1  0  0  0  0
  7  8  1  0  0  0  0
  9  8  1  4  0  0  0
  9 10  2  0  0  0  0
 10 11  1  0  0  0  0
 11 12  1  0  0  0  0
 12 13  1  0  0  0  0
 13 14  1  0  0  0  0
 14 15  1  0  0  0  0
 15 16  1  0  0  0  0
 16 17  1  0  0  0  0
 17 18  1  0  0  0  0
 18 19  2  0  0  0  0
 18 20  1  0  0  0  0
 20 21  1  0  0  0  0
M  END
> <ChemID>
100555

> <CAS>
112-62-9

> <Original_SMILES>
CCCCCCCC/C=C\CCCCCCCC(=O)OC

> <preferred_name>
Methyl (9Z)-octadec-9-enoate

> <dsstox_substance_id>
DTXSID5025811

> <dsstox_compound_id>
DTXCID805811

> <qc_level>
DSSTox_Low

> <Canonical_QSARr>
CCCCCCCCC=CCCCCCCCC(=O)OC

> <InChI_Code_QSARr>
InChI=1S/C19H36O2/c1-3-4-5-6-7-8-9-10-11-12-13-14-15-16-17-18-19(20)21-2/h10-11H,3-9,12-18H2,1-2H3

> <InChI Key_QSARr>
QYDYPVFESGNLHU-UHFFFAOYSA-N

> <Salt_Solvent>


> <Salt_Solvent_ID>
0

> <MPID>
100565

> <Tr_1_Tst_0>
1

> <Ready_Biodeg>
1.0

$$$$
Row546
  Mrv171c012251911052D          

 14 13  0  0  0  0            999 V2000
    0.0072   -0.4109    0.0000 C   0  0  0  0  0  0  0  0  0  0  0  0
    0.7217    0.0016    0.0000 C   0  0  0  0  0  0  0  0  0  0  0  0
    1.4361   -0.4109    0.0000 C   0  0  0  0  0  0  0  0  0  0  0  0
    2.1506    0.0016    0.0000 C   0  0  0  0  0  0  0  0  0  0  0  0
    2.8651   -0.4109    0.0000 C   0  0  0  0  0  0  0  0  0  0  0  0
    3.5795    0.0016    0.0000 C   0  0  0  0  0  0  0  0  0  0  0  0
    4.2940   -0.4109    0.0000 C   0  0  0  0  0  0  0  0  0  0  0  0
    5.0085    0.0016    0.0000 C   0  0  0  0  0  0  0  0  0  0  0  0
    5.7230   -0.4109    0.0000 C   0  0  0  0  0  0  0  0  0  0  0  0
    6.4374    0.0016    0.0000 C   0  0  0  0  0  0  0  0  0  0  0  0
    7.1519   -0.4109    0.0000 C   0  0  0  0  0  0  0  0  0  0  0  0
    7.8664    0.0016    0.0000 C   0  0  0  0  0  0  0  0  0  0  0  0
    8.5808   -0.4109    0.0000 C   0  0  0  0  0  0  0  0  0  0  0  0
    9.2953    0.0016    0.0000 O   0  0  0  0  0  0  0  0  0  0  0  0
  1  2  1  0  0  0  0
  2  3  1  0  0  0  0
  3  4  1  0  0  0  0
  4  5  1  0  0  0  0
  5  6  1  0  0  0  0
  6  7  1  0  0  0  0
  7  8  1  0  0  0  0
  8  9  1  0  0  0  0
  9 10  1  0  0  0  0
 10 11  1  0  0  0  0
 11 12  1  0  0  0  0
 12 13  1  0  0  0  0
 13 14  1  0  0  0  0
M  END
> <ChemID>
100556

> <CAS>
112-70-9

> <Original_SMILES>
CCCCCCCCCCCCCO

> <preferred_name>
1-Tridecanol

> <dsstox_substance_id>
DTXSID2021947

> <dsstox_compound_id>
DTXCID901947

> <qc_level>
DSSTox_High

> <Canonical_QSARr>
CCCCCCCCCCCCCO

> <InChI_Code_QSARr>
InChI=1S/C13H28O/c1-2-3-4-5-6-7-8-9-10-11-12-13-14/h14H,2-13H2,1H3

> <InChI Key_QSARr>
XFRVVPUIAFSTFO-UHFFFAOYSA-N

> <Salt_Solvent>


> <Salt_Solvent_ID>
0

> <MPID>
100566

> <Tr_1_Tst_0>
1

> <Ready_Biodeg>
1.0

$$$$
Row547
  Mrv171c012251911052D          

 15 14  0  0  0  0            999 V2000
    0.8116   -0.4424    0.0000 C   0  0  0  0  0  0  0  0  0  0  0  0
    0.0971   -0.0299    0.0000 O   0  0  0  0  0  0  0  0  0  0  0  0
    1.5260   -0.0299    0.0000 C   0  0  0  0  0  0  0  0  0  0  0  0
    2.2405   -0.4424    0.0000 C   0  0  0  0  0  0  0  0  0  0  0  0
    2.9550   -0.0299    0.0000 C   0  0  0  0  0  0  0  0  0  0  0  0
    3.6694   -0.4424    0.0000 C   0  0  0  0  0  0  0  0  0  0  0  0
    4.3839   -0.0299    0.0000 C   0  0  0  0  0  0  0  0  0  0  0  0
    5.0984   -0.4424    0.0000 C   0  0  0  0  0  0  0  0  0  0  0  0
    5.8129   -0.0299    0.0000 C   0  0  0  0  0  0  0  0  0  0  0  0
    6.5273   -0.4424    0.0000 C   0  0  0  0  0  0  0  0  0  0  0  0
    7.2418   -0.0299    0.0000 C   0  0  0  0  0  0  0  0  0  0  0  0
    7.9563   -0.4424    0.0000 C   0  0  0  0  0  0  0  0  0  0  0  0
    8.6707   -0.0299    0.0000 C   0  0  0  0  0  0  0  0  0  0  0  0
    9.3852   -0.4424    0.0000 C   0  0  0  0  0  0  0  0  0  0  0  0
   10.0997   -0.0299    0.0000 C   0  0  0  0  0  0  0  0  0  0  0  0
  1  2  1  0  0  0  0
  1  3  1  0  0  0  0
  3  4  1  0  0  0  0
  4  5  1  0  0  0  0
  5  6  1  0  0  0  0
  6  7  1  0  0  0  0
  7  8  1  0  0  0  0
  8  9  1  0  0  0  0
  9 10  1  0  0  0  0
 10 11  1  0  0  0  0
 11 12  1  0  0  0  0
 12 13  1  0  0  0  0
 13 14  1  0  0  0  0
 14 15  1  0  0  0  0
M  END
> <ChemID>
100557

> <CAS>
112-72-1

> <Original_SMILES>
CCCCCCCCCCCCCCO

> <preferred_name>
1-Tetradecanol

> <dsstox_substance_id>
DTXSID9026926

> <dsstox_compound_id>
DTXCID406926

> <qc_level>
DSSTox_Low

> <Canonical_QSARr>
CCCCCCCCCCCCCCO

> <InChI_Code_QSARr>
InChI=1S/C14H30O/c1-2-3-4-5-6-7-8-9-10-11-12-13-14-15/h15H,2-14H2,1H3

> <InChI Key_QSARr>
HLZKNKRTKFSKGZ-UHFFFAOYSA-N

> <Salt_Solvent>


> <Salt_Solvent_ID>
0

> <MPID>
100567

> <Tr_1_Tst_0>
1

> <Ready_Biodeg>
1.0

$$$$
Row548
  Mrv171c012251911052D          

 20 19  0  0  0  0            999 V2000
   -4.1467    2.5559    0.0000 C   0  0  0  0  0  0  0  0  0  0  0  0
   -3.4322    2.1434    0.0000 C   0  0  0  0  0  0  0  0  0  0  0  0
   -2.7177    2.5559    0.0000 C   0  0  0  0  0  0  0  0  0  0  0  0
   -2.0033    2.1434    0.0000 C   0  0  0  0  0  0  0  0  0  0  0  0
   -1.2888    2.5559    0.0000 C   0  0  0  0  0  0  0  0  0  0  0  0
   -0.5743    2.1434    0.0000 C   0  0  0  0  0  0  0  0  0  0  0  0
    0.1401    2.5559    0.0000 C   0  0  0  0  0  0  0  0  0  0  0  0
    0.8546    2.1434    0.0000 C   0  0  0  0  0  0  0  0  0  0  0  0
    1.5691    2.5559    0.0000 C   0  0  0  0  0  0  0  0  0  0  0  0
    2.2836    2.1434    0.0000 C   0  0  0  0  0  0  0  0  0  0  0  0
    2.9980    2.5559    0.0000 C   0  0  0  0  0  0  0  0  0  0  0  0
    3.7125    2.1434    0.0000 C   0  0  0  0  0  0  0  0  0  0  0  0
    4.4270    2.5559    0.0000 C   0  0  0  0  0  0  0  0  0  0  0  0
    5.1414    2.1434    0.0000 C   0  0  0  0  0  0  0  0  0  0  0  0
    5.8559    2.5559    0.0000 C   0  0  0  0  0  0  0  0  0  0  0  0
    6.5704    2.1434    0.0000 C   0  0  0  0  0  0  0  0  0  0  0  0
    7.2849    2.5559    0.0000 C   0  0  0  0  0  0  0  0  0  0  0  0
    7.9993    2.1434    0.0000 C   0  0  0  0  0  0  0  0  0  0  0  0
    8.7138    2.5559    0.0000 O   0  0  0  0  0  0  0  0  0  0  0  0
    7.9993    1.3184    0.0000 O   0  0  0  0  0  0  0  0  0  0  0  0
  1  2  1  0  0  0  0
  2  3  1  0  0  0  0
  3  4  1  0  0  0  0
  4  5  1  0  0  0  0
  5  6  1  0  0  0  0
  6  7  1  0  0  0  0
  7  8  1  0  0  0  0
  9  8  1  4  0  0  0
  9 10  2  0  0  0  0
 10 11  1  0  0  0  0
 11 12  1  0  0  0  0
 12 13  1  0  0  0  0
 13 14  1  0  0  0  0
 14 15  1  0  0  0  0
 15 16  1  0  0  0  0
 16 17  1  0  0  0  0
 17 18  1  0  0  0  0
 18 19  1  0  0  0  0
 18 20  2  0  0  0  0
M  END
> <ChemID>
100558

> <CAS>
112-80-1

> <Original_SMILES>
CCCCCCCC/C=C\CCCCCCCC(O)=O

> <preferred_name>
Oleic acid

> <dsstox_substance_id>
DTXSID1025809

> <dsstox_compound_id>
DTXCID705809

> <qc_level>
DSSTox_High

> <Canonical_QSARr>
CCCCCCCCC=CCCCCCCCC(O)=O

> <InChI_Code_QSARr>
InChI=1S/C18H34O2/c1-2-3-4-5-6-7-8-9-10-11-12-13-14-15-16-17-18(19)20/h9-10H,2-8,11-17H2,1H3,(H,19,20)

> <InChI Key_QSARr>
ZQPPMHVWECSIRJ-UHFFFAOYSA-N

> <Salt_Solvent>


> <Salt_Solvent_ID>
0

> <MPID>
100568

> <Tr_1_Tst_0>
0

> <Ready_Biodeg>
1.0

$$$$
Row549
  Mrv171c012251911052D          

 24 23  0  0  0  0            999 V2000
   -1.6717    3.9849    0.0000 C   0  0  0  0  0  0  0  0  0  0  0  0
   -0.9572    3.5724    0.0000 C   0  0  0  0  0  0  0  0  0  0  0  0
   -0.2427    3.9849    0.0000 C   0  0  0  0  0  0  0  0  0  0  0  0
    0.4717    3.5724    0.0000 C   0  0  0  0  0  0  0  0  0  0  0  0
    1.1862    3.9849    0.0000 C   0  0  0  0  0  0  0  0  0  0  0  0
    1.9007    3.5724    0.0000 C   0  0  0  0  0  0  0  0  0  0  0  0
    2.6151    3.9849    0.0000 C   0  0  0  0  0  0  0  0  0  0  0  0
    3.3296    3.5724    0.0000 C   0  0  0  0  0  0  0  0  0  0  0  0
    4.0441    3.9849    0.0000 C   0  0  0  0  0  0  0  0  0  0  0  0
    4.7586    3.5724    0.0000 C   0  0  0  0  0  0  0  0  0  0  0  0
    5.4730    3.9849    0.0000 C   0  0  0  0  0  0  0  0  0  0  0  0
    6.1875    3.5724    0.0000 C   0  0  0  0  0  0  0  0  0  0  0  0
    6.9020    3.9849    0.0000 C   0  0  0  0  0  0  0  0  0  0  0  0
    7.6164    3.5724    0.0000 C   0  0  0  0  0  0  0  0  0  0  0  0
    8.3309    3.9849    0.0000 C   0  0  0  0  0  0  0  0  0  0  0  0
    9.0454    3.5724    0.0000 C   0  0  0  0  0  0  0  0  0  0  0  0
    9.7599    3.9849    0.0000 C   0  0  0  0  0  0  0  0  0  0  0  0
   10.4743    3.5724    0.0000 C   0  0  0  0  0  0  0  0  0  0  0  0
   11.1888    3.9849    0.0000 C   0  0  0  0  0  0  0  0  0  0  0  0
   11.9033    3.5724    0.0000 C   0  0  0  0  0  0  0  0  0  0  0  0
   12.6177    3.9849    0.0000 C   0  0  0  0  0  0  0  0  0  0  0  0
   13.3322    3.5724    0.0000 C   0  0  0  0  0  0  0  0  0  0  0  0
   14.0467    3.9849    0.0000 N   0  0  0  0  0  0  0  0  0  0  0  0
   13.3322    2.7474    0.0000 O   0  0  0  0  0  0  0  0  0  0  0  0
  1  2  1  0  0  0  0
  2  3  1  0  0  0  0
  3  4  1  0  0  0  0
  4  5  1  0  0  0  0
  5  6  1  0  0  0  0
  6  7  1  0  0  0  0
  7  8  1  0  0  0  0
  9  8  1  4  0  0  0
  9 10  2  0  0  0  0
 10 11  1  0  0  0  0
 11 12  1  0  0  0  0
 12 13  1  0  0  0  0
 13 14  1  0  0  0  0
 14 15  1  0  0  0  0
 15 16  1  0  0  0  0
 16 17  1  0  0  0  0
 17 18  1  0  0  0  0
 18 19  1  0  0  0  0
 19 20  1  0  0  0  0
 20 21  1  0  0  0  0
 21 22  1  0  0  0  0
 22 23  1  0  0  0  0
 22 24  2  0  0  0  0
M  END
> <ChemID>
100559

> <CAS>
112-84-5

> <Original_SMILES>
CCCCCCCC/C=C\CCCCCCCCCCCC(N)=O

> <preferred_name>
Erucamide

> <dsstox_substance_id>
DTXSID4026929

> <dsstox_compound_id>
DTXCID606929

> <qc_level>
DSSTox_Low

> <Canonical_QSARr>
CCCCCCCCC=CCCCCCCCCCCCC(N)=O

> <InChI_Code_QSARr>
InChI=1S/C22H43NO/c1-2-3-4-5-6-7-8-9-10-11-12-13-14-15-16-17-18-19-20-21-22(23)24/h9-10H,2-8,11-21H2,1H3,(H2,23,24)

> <InChI Key_QSARr>
UAUDZVJPLUQNMU-UHFFFAOYSA-N

> <Salt_Solvent>


> <Salt_Solvent_ID>
0

> <MPID>
100569

> <Tr_1_Tst_0>
1

> <Ready_Biodeg>
1.0

$$$$
Row550
  Mrv171c012251911052D          

 19 18  0  0  0  0            999 V2000
    0.6799   -0.4110    0.0000 C   0  0  0  0  0  0  0  0  0  0  0  0
   -0.0346    0.0015    0.0000 O   0  0  0  0  0  0  0  0  0  0  0  0
    1.3943    0.0015    0.0000 C   0  0  0  0  0  0  0  0  0  0  0  0
    2.1088   -0.4110    0.0000 C   0  0  0  0  0  0  0  0  0  0  0  0
    2.8233    0.0015    0.0000 C   0  0  0  0  0  0  0  0  0  0  0  0
    3.5377   -0.4110    0.0000 C   0  0  0  0  0  0  0  0  0  0  0  0
    4.2522    0.0015    0.0000 C   0  0  0  0  0  0  0  0  0  0  0  0
    4.9667   -0.4110    0.0000 C   0  0  0  0  0  0  0  0  0  0  0  0
    5.6812    0.0015    0.0000 C   0  0  0  0  0  0  0  0  0  0  0  0
    6.3956   -0.4110    0.0000 C   0  0  0  0  0  0  0  0  0  0  0  0
    7.1101    0.0015    0.0000 C   0  0  0  0  0  0  0  0  0  0  0  0
    7.8246   -0.4110    0.0000 C   0  0  0  0  0  0  0  0  0  0  0  0
    8.5390    0.0015    0.0000 C   0  0  0  0  0  0  0  0  0  0  0  0
    9.2535   -0.4110    0.0000 C   0  0  0  0  0  0  0  0  0  0  0  0
    9.9680    0.0015    0.0000 C   0  0  0  0  0  0  0  0  0  0  0  0
   10.6825   -0.4110    0.0000 C   0  0  0  0  0  0  0  0  0  0  0  0
   11.3969    0.0015    0.0000 C   0  0  0  0  0  0  0  0  0  0  0  0
   12.1114   -0.4110    0.0000 C   0  0  0  0  0  0  0  0  0  0  0  0
   12.8259    0.0015    0.0000 C   0  0  0  0  0  0  0  0  0  0  0  0
  1  2  1  0  0  0  0
  1  3  1  0  0  0  0
  3  4  1  0  0  0  0
  4  5  1  0  0  0  0
  5  6  1  0  0  0  0
  6  7  1  0  0  0  0
  7  8  1  0  0  0  0
  8  9  1  0  0  0  0
  9 10  1  0  0  0  0
 10 11  1  0  0  0  0
 11 12  1  0  0  0  0
 12 13  1  0  0  0  0
 13 14  1  0  0  0  0
 14 15  1  0  0  0  0
 15 16  1  0  0  0  0
 16 17  1  0  0  0  0
 17 18  1  0  0  0  0
 18 19  1  0  0  0  0
M  END
> <ChemID>
100560

> <CAS>
112-92-5

> <Original_SMILES>
CCCCCCCCCCCCCCCCCCO

> <preferred_name>
1-Octadecanol

> <dsstox_substance_id>
DTXSID8026935

> <dsstox_compound_id>
DTXCID306935

> <qc_level>
DSSTox_High

> <Canonical_QSARr>
CCCCCCCCCCCCCCCCCCO

> <InChI_Code_QSARr>
InChI=1S/C18H38O/c1-2-3-4-5-6-7-8-9-10-11-12-13-14-15-16-17-18-19/h19H,2-18H2,1H3

> <InChI Key_QSARr>
GLDOVTGHNKAZLK-UHFFFAOYSA-N

> <Salt_Solvent>


> <Salt_Solvent_ID>
0

> <MPID>
100570

> <Tr_1_Tst_0>
1

> <Ready_Biodeg>
1.0

$$$$
Row551
  Mrv171c012251911052D          

 20 19  0  0  0  0            999 V2000
   -0.0136   -0.4095    0.0000 C   0  0  0  0  0  0  0  0  0  0  0  0
    0.7009    0.0030    0.0000 C   0  0  0  0  0  0  0  0  0  0  0  0
    1.4153   -0.4095    0.0000 C   0  0  0  0  0  0  0  0  0  0  0  0
    2.1298    0.0030    0.0000 C   0  0  0  0  0  0  0  0  0  0  0  0
    2.8443   -0.4095    0.0000 C   0  0  0  0  0  0  0  0  0  0  0  0
    3.5587    0.0030    0.0000 C   0  0  0  0  0  0  0  0  0  0  0  0
    4.2732   -0.4095    0.0000 C   0  0  0  0  0  0  0  0  0  0  0  0
    4.9877    0.0030    0.0000 C   0  0  0  0  0  0  0  0  0  0  0  0
    5.7022   -0.4095    0.0000 C   0  0  0  0  0  0  0  0  0  0  0  0
    6.4166    0.0030    0.0000 C   0  0  0  0  0  0  0  0  0  0  0  0
    7.1311   -0.4095    0.0000 C   0  0  0  0  0  0  0  0  0  0  0  0
    7.8456    0.0030    0.0000 C   0  0  0  0  0  0  0  0  0  0  0  0
    8.5600   -0.4095    0.0000 C   0  0  0  0  0  0  0  0  0  0  0  0
    9.2745    0.0030    0.0000 C   0  0  0  0  0  0  0  0  0  0  0  0
    9.9890   -0.4095    0.0000 C   0  0  0  0  0  0  0  0  0  0  0  0
   10.7034    0.0030    0.0000 C   0  0  0  0  0  0  0  0  0  0  0  0
   11.4179   -0.4095    0.0000 C   0  0  0  0  0  0  0  0  0  0  0  0
   12.1324    0.0030    0.0000 C   0  0  0  0  0  0  0  0  0  0  0  0
   12.8469   -0.4095    0.0000 C   0  0  0  0  0  0  0  0  0  0  0  0
   13.5613    0.0030    0.0000 C   0  0  0  0  0  0  0  0  0  0  0  0
  1  2  1  0  0  0  0
  2  3  1  0  0  0  0
  3  4  1  0  0  0  0
  4  5  1  0  0  0  0
  5  6  1  0  0  0  0
  6  7  1  0  0  0  0
  7  8  1  0  0  0  0
  8  9  1  0  0  0  0
  9 10  1  0  0  0  0
 10 11  1  0  0  0  0
 11 12  1  0  0  0  0
 12 13  1  0  0  0  0
 13 14  1  0  0  0  0
 14 15  1  0  0  0  0
 15 16  1  0  0  0  0
 16 17  1  0  0  0  0
 17 18  1  0  0  0  0
 18 19  1  0  0  0  0
 19 20  1  0  0  0  0
M  END
> <ChemID>
100561

> <CAS>
112-95-8

> <Original_SMILES>
CCCCCCCCCCCCCCCCCCCC

> <preferred_name>
Eicosane

> <dsstox_substance_id>
DTXSID1025227

> <dsstox_compound_id>
DTXCID305227

> <qc_level>
DSSTox_Low

> <Canonical_QSARr>
CCCCCCCCCCCCCCCCCCCC

> <InChI_Code_QSARr>
InChI=1S/C20H42/c1-3-5-7-9-11-13-15-17-19-20-18-16-14-12-10-8-6-4-2/h3-20H2,1-2H3

> <InChI Key_QSARr>
CBFCDTFDPHXCNY-UHFFFAOYSA-N

> <Salt_Solvent>


> <Salt_Solvent_ID>
0

> <MPID>
100571

> <Tr_1_Tst_0>
1

> <Ready_Biodeg>
1.0

$$$$
Row552
  Mrv171c012251911052D          

 21 20  0  0  0  0            999 V2000
    6.5978   -1.0171    0.0000 C   0  0  0  0  0  0  0  0  0  0  0  0
    5.8833   -0.6046    0.0000 N   0  0  0  0  0  0  0  0  0  0  0  0
    5.1689   -1.0171    0.0000 C   0  0  0  0  0  0  0  0  0  0  0  0
    4.4544   -1.4296    0.0000 O   0  0  0  0  0  0  0  0  0  0  0  0
    7.3123   -0.6046    0.0000 C   0  0  0  0  0  0  0  0  0  0  0  0
    8.0267   -1.0171    0.0000 C   0  0  0  0  0  0  0  0  0  0  0  0
    8.7412   -0.6046    0.0000 C   0  0  0  0  0  0  0  0  0  0  0  0
    9.4557   -1.0171    0.0000 C   0  0  0  0  0  0  0  0  0  0  0  0
   10.1702   -0.6046    0.0000 C   0  0  0  0  0  0  0  0  0  0  0  0
   10.8846   -1.0171    0.0000 C   0  0  0  0  0  0  0  0  0  0  0  0
   11.5991   -0.6046    0.0000 C   0  0  0  0  0  0  0  0  0  0  0  0
   12.3136   -1.0171    0.0000 C   0  0  0  0  0  0  0  0  0  0  0  0
   13.0280   -0.6046    0.0000 C   0  0  0  0  0  0  0  0  0  0  0  0
   13.7425   -1.0171    0.0000 C   0  0  0  0  0  0  0  0  0  0  0  0
   14.4570   -0.6046    0.0000 C   0  0  0  0  0  0  0  0  0  0  0  0
   15.1715   -1.0171    0.0000 C   0  0  0  0  0  0  0  0  0  0  0  0
   15.8859   -0.6046    0.0000 C   0  0  0  0  0  0  0  0  0  0  0  0
   16.6004   -1.0171    0.0000 C   0  0  0  0  0  0  0  0  0  0  0  0
   17.3149   -0.6046    0.0000 C   0  0  0  0  0  0  0  0  0  0  0  0
   18.0293   -1.0171    0.0000 C   0  0  0  0  0  0  0  0  0  0  0  0
   18.7438   -0.6046    0.0000 C   0  0  0  0  0  0  0  0  0  0  0  0
  1  2  1  0  0  0  0
  2  3  2  0  0  0  0
  3  4  2  0  0  0  0
  1  5  1  0  0  0  0
  5  6  1  0  0  0  0
  6  7  1  0  0  0  0
  7  8  1  0  0  0  0
  8  9  1  0  0  0  0
  9 10  1  0  0  0  0
 10 11  1  0  0  0  0
 11 12  1  0  0  0  0
 12 13  1  0  0  0  0
 13 14  1  0  0  0  0
 14 15  1  0  0  0  0
 15 16  1  0  0  0  0
 16 17  1  0  0  0  0
 17 18  1  0  0  0  0
 18 19  1  0  0  0  0
 19 20  1  0  0  0  0
 20 21  1  0  0  0  0
M  END
> <ChemID>
100562

> <CAS>
112-96-9

> <Original_SMILES>
CCCCCCCCCCCCCCCCCCN=C=O

> <preferred_name>
Octadecyl isocyanate

> <dsstox_substance_id>
DTXSID3038727

> <dsstox_compound_id>
DTXCID1018727

> <qc_level>
DSSTox_Low

> <Canonical_QSARr>
CCCCCCCCCCCCCCCCCCN=C=O

> <InChI_Code_QSARr>
InChI=1S/C19H37NO/c1-2-3-4-5-6-7-8-9-10-11-12-13-14-15-16-17-18-20-19-21/h2-18H2,1H3

> <InChI Key_QSARr>
QWDQYHPOSSHSAW-UHFFFAOYSA-N

> <Salt_Solvent>


> <Salt_Solvent_ID>
0

> <MPID>
100572

> <Tr_1_Tst_0>
0

> <Ready_Biodeg>
0.0

$$$$
Row553
  Mrv171c012251911052D          

 15 15  0  0  0  0            999 V2000
    4.7422   -2.6245    0.0000 C   0  0  0  0  0  0  0  0  0  0  0  0
    4.0277   -3.0370    0.0000 C   0  0  0  0  0  0  0  0  0  0  0  0
    3.3132   -2.6245    0.0000 O   0  0  0  0  0  0  0  0  0  0  0  0
    2.5988   -3.0370    0.0000 C   0  0  0  0  0  0  0  0  0  0  0  0
    1.8843   -2.6245    0.0000 C   0  0  0  0  0  0  0  0  0  0  0  0
    1.8843   -1.7995    0.0000 O   0  0  0  0  0  0  0  0  0  0  0  0
    1.1698   -1.3870    0.0000 C   0  0  0  0  0  0  0  0  0  0  0  0
    1.1698   -0.5620    0.0000 N   0  0  0  0  0  0  0  0  0  0  0  0
    0.4554   -0.1495    0.0000 C   0  0  0  0  0  0  0  0  0  0  0  0
    0.4554   -1.7995    0.0000 O   0  0  0  0  0  0  0  0  0  0  0  0
    1.1698   -3.0370    0.0000 C   0  0  0  0  0  0  0  0  0  0  0  0
    1.1698   -3.8620    0.0000 C   0  0  0  0  0  0  0  0  0  0  0  0
    1.8843   -4.2745    0.0000 C   0  0  0  0  0  0  0  0  0  0  0  0
    2.5988   -3.8620    0.0000 C   0  0  0  0  0  0  0  0  0  0  0  0
    4.0277   -3.8620    0.0000 C   0  0  0  0  0  0  0  0  0  0  0  0
  1  2  1  0  0  0  0
  2  3  1  0  0  0  0
  3  4  1  0  0  0  0
  5  4  1  0  0  0  0
  5  6  1  0  0  0  0
  6  7  1  0  0  0  0
  7  8  1  0  0  0  0
  8  9  1  0  0  0  0
  7 10  2  0  0  0  0
 11  5  2  0  0  0  0
 12 11  1  0  0  0  0
 13 12  2  0  0  0  0
 14 13  1  0  0  0  0
  4 14  2  0  0  0  0
  2 15  1  0  0  0  0
M  END
> <ChemID>
100563

> <CAS>
114-26-1

> <Original_SMILES>
CNC(=O)Oc1ccccc1OC(C)C

> <preferred_name>
Propoxur

> <dsstox_substance_id>
DTXSID7021948

> <dsstox_compound_id>
DTXCID301948

> <qc_level>
DSSTox_Low

> <Canonical_QSARr>
CNC(=O)OC1=CC=CC=C1OC(C)C

> <InChI_Code_QSARr>
InChI=1S/C11H15NO3/c1-8(2)14-9-6-4-5-7-10(9)15-11(13)12-3/h4-8H,1-3H3,(H,12,13)

> <InChI Key_QSARr>
ISRUGXGCCGIOQO-UHFFFAOYSA-N

> <Salt_Solvent>


> <Salt_Solvent_ID>
0

> <MPID>
100573

> <Tr_1_Tst_0>
1

> <Ready_Biodeg>
1.0

$$$$
Row554
  Mrv171c012251911052D          

  3  2  0  0  0  0            999 V2000
    0.0004   -0.1370    0.0000 C   0  0  0  0  0  0  0  0  0  0  0  0
    0.7149   -0.5495    0.0000 O   0  0  0  0  0  0  0  0  0  0  0  0
    1.4294   -0.1370    0.0000 C   0  0  0  0  0  0  0  0  0  0  0  0
  1  2  1  0  0  0  0
  2  3  1  0  0  0  0
M  END
> <ChemID>
100564

> <CAS>
115-10-6

> <Original_SMILES>
COC

> <preferred_name>
Dimethyl ether

> <dsstox_substance_id>
DTXSID8026937

> <dsstox_compound_id>
DTXCID106937

> <qc_level>
DSSTox_Low

> <Canonical_QSARr>
COC

> <InChI_Code_QSARr>
InChI=1S/C2H6O/c1-3-2/h1-2H3

> <InChI Key_QSARr>
LCGLNKUTAGEVQW-UHFFFAOYSA-N

> <Salt_Solvent>


> <Salt_Solvent_ID>
0

> <MPID>
100574

> <Tr_1_Tst_0>
1

> <Ready_Biodeg>
0.0

$$$$
Row555
  Mrv171c012251911052D          

 19 20  0  0  0  0            999 V2000
    0.6241   -1.4154    0.0000 C   0  0  0  0  0  0  0  0  0  0  0  0
    0.0269   -0.9666    0.0000 Cl  0  0  0  0  0  0  0  0  0  0  0  0
    1.4558   -0.9811    0.0000 C   0  0  0  0  0  0  0  0  0  0  0  0
    1.4642   -0.1562    0.0000 Cl  0  0  0  0  0  0  0  0  0  0  0  0
    1.6536   -1.8082    0.0000 C   0  0  0  0  0  0  0  0  0  0  0  0
    0.9115   -1.4478    0.0000 Cl  0  0  0  0  0  0  0  0  0  0  0  0
    1.0173   -2.1244    0.0000 Cl  0  0  0  0  0  0  0  0  0  0  0  0
    1.4390   -2.6311    0.0000 C   0  0  0  0  0  0  0  0  0  0  0  0
    1.4306   -3.4560    0.0000 Cl  0  0  0  0  0  0  0  0  0  0  0  0
    2.1576   -2.2258    0.0000 C   0  0  0  0  0  0  0  0  0  0  0  0
    2.8679   -2.6456    0.0000 C   0  0  0  0  0  0  0  0  0  0  0  0
    3.5865   -2.2404    0.0000 O   0  0  0  0  0  0  0  0  0  0  0  0
    2.8595   -3.4705    0.0000 O   0  0  0  0  0  0  0  0  0  0  0  0
    2.1660   -1.4009    0.0000 C   0  0  0  0  0  0  0  0  0  0  0  0
    2.8846   -0.9957    0.0000 C   0  0  0  0  0  0  0  0  0  0  0  0
    2.8930   -0.1707    0.0000 O   0  0  0  0  0  0  0  0  0  0  0  0
    3.5949   -1.4154    0.0000 O   0  0  0  0  0  0  0  0  0  0  0  0
    0.7288   -2.2113    0.0000 C   0  0  0  0  0  0  0  0  0  0  0  0
    0.0101   -2.6165    0.0000 Cl  0  0  0  0  0  0  0  0  0  0  0  0
  1  2  1  0  0  0  0
  3  1  1  0  0  0  0
  3  4  1  0  0  0  0
  3  5  1  0  0  0  0
  5  6  1  0  0  0  0
  5  7  1  0  0  0  0
  5  8  1  0  0  0  0
  8  9  1  0  0  0  0
  8 10  1  0  0  0  0
 10 11  1  0  0  0  0
 11 12  1  0  0  0  0
 11 13  2  0  0  0  0
 10 14  1  0  0  0  0
 14  3  1  0  0  0  0
 14 15  1  0  0  0  0
 15 16  1  0  0  0  0
 15 17  2  0  0  0  0
 18  8  1  0  0  0  0
  1 18  2  0  0  0  0
 18 19  1  0  0  0  0
M  END
> <ChemID>
100565

> <CAS>
115-28-6

> <Original_SMILES>
OC(=O)C1C(C(O)=O)C2(Cl)C(Cl)=C(Cl)C1(Cl)C2(Cl)Cl

> <preferred_name>
Chlorendic acid

> <dsstox_substance_id>
DTXSID2020268

> <dsstox_compound_id>
DTXCID80268

> <qc_level>
DSSTox_High

> <Canonical_QSARr>
OC(=O)C1C(C(O)=O)C2(Cl)C(Cl)=C(Cl)C1(Cl)C2(Cl)Cl

> <InChI_Code_QSARr>
InChI=1S/C9H4Cl6O4/c10-3-4(11)8(13)2(6(18)19)1(5(16)17)7(3,12)9(8,14)15/h1-2H,(H,16,17)(H,18,19)

> <InChI Key_QSARr>
DJKGDNKYTKCJKD-UHFFFAOYSA-N

> <Salt_Solvent>


> <Salt_Solvent_ID>
0

> <MPID>
100575

> <Tr_1_Tst_0>
1

> <Ready_Biodeg>
0.0

$$$$
Row556
  Mrv171c012251911052D          

 20 21  0  0  0  0            999 V2000
    0.5375   -2.8409    0.0000 O   0  0  0  0  0  0  0  0  0  0  0  0
    1.3625   -2.8409    0.0000 C   0  0  0  0  0  0  0  0  0  0  0  0
    2.1875   -2.8409    0.0000 C   0  0  0  0  0  0  0  0  0  0  0  0
    3.0125   -2.8409    0.0000 Cl  0  0  0  0  0  0  0  0  0  0  0  0
    2.1875   -3.6659    0.0000 Cl  0  0  0  0  0  0  0  0  0  0  0  0
    2.1875   -2.0159    0.0000 Cl  0  0  0  0  0  0  0  0  0  0  0  0
    1.3625   -2.0159    0.0000 C   0  0  0  0  0  0  0  0  0  0  0  0
    2.0770   -1.6034    0.0000 C   0  0  0  0  0  0  0  0  0  0  0  0
    2.0770   -0.7784    0.0000 C   0  0  0  0  0  0  0  0  0  0  0  0
    1.3625   -0.3659    0.0000 C   0  0  0  0  0  0  0  0  0  0  0  0
    1.3625    0.4591    0.0000 Cl  0  0  0  0  0  0  0  0  0  0  0  0
    0.6481   -0.7784    0.0000 C   0  0  0  0  0  0  0  0  0  0  0  0
    0.6481   -1.6034    0.0000 C   0  0  0  0  0  0  0  0  0  0  0  0
    1.3625   -3.6659    0.0000 C   0  0  0  0  0  0  0  0  0  0  0  0
    0.6481   -4.0784    0.0000 C   0  0  0  0  0  0  0  0  0  0  0  0
    0.6481   -4.9034    0.0000 C   0  0  0  0  0  0  0  0  0  0  0  0
    1.3625   -5.3159    0.0000 C   0  0  0  0  0  0  0  0  0  0  0  0
    1.3625   -6.1409    0.0000 Cl  0  0  0  0  0  0  0  0  0  0  0  0
    2.0770   -4.9034    0.0000 C   0  0  0  0  0  0  0  0  0  0  0  0
    2.0770   -4.0784    0.0000 C   0  0  0  0  0  0  0  0  0  0  0  0
  1  2  1  0  0  0  0
  2  3  1  0  0  0  0
  3  4  1  0  0  0  0
  3  5  1  0  0  0  0
  3  6  1  0  0  0  0
  2  7  1  0  0  0  0
  8  7  1  0  0  0  0
  9  8  2  0  0  0  0
 10  9  1  0  0  0  0
 10 11  1  0  0  0  0
 12 10  2  0  0  0  0
 13 12  1  0  0  0  0
  7 13  2  0  0  0  0
  2 14  1  0  0  0  0
 15 14  1  0  0  0  0
 16 15  2  0  0  0  0
 17 16  1  0  0  0  0
 17 18  1  0  0  0  0
 19 17  2  0  0  0  0
 20 19  1  0  0  0  0
 14 20  2  0  0  0  0
M  END
> <ChemID>
100566

> <CAS>
115-32-2

> <Original_SMILES>
OC(c1ccc(Cl)cc1)(c1ccc(Cl)cc1)C(Cl)(Cl)Cl

> <preferred_name>
Dicofol

> <dsstox_substance_id>
DTXSID4020450

> <dsstox_compound_id>
DTXCID40450

> <qc_level>
DSSTox_Low

> <Canonical_QSARr>
OC(C1C=CC(Cl)=CC=1)(C1C=CC(Cl)=CC=1)C(Cl)(Cl)Cl

> <InChI_Code_QSARr>
InChI=1S/C14H9Cl5O/c15-11-5-1-9(2-6-11)13(20,14(17,18)19)10-3-7-12(16)8-4-10/h1-8,20H

> <InChI Key_QSARr>
UOAMTSKGCBMZTC-UHFFFAOYSA-N

> <Salt_Solvent>


> <Salt_Solvent_ID>
0

> <MPID>
100576

> <Tr_1_Tst_0>
0

> <Ready_Biodeg>
0.0

$$$$
Row557
  Mrv171c012251911052D          

  9  8  0  0  0  0            999 V2000
    2.1459   -1.2895    0.0000 C   0  0  0  0  0  0  0  0  0  0  0  0
    2.8604   -0.8770    0.0000 O   0  0  0  0  0  0  0  0  0  0  0  0
    1.4314   -0.8770    0.0000 C   0  0  0  0  0  0  0  0  0  0  0  0
    0.7170   -0.4645    0.0000 C   0  0  0  0  0  0  0  0  0  0  0  0
    0.0025   -0.8770    0.0000 O   0  0  0  0  0  0  0  0  0  0  0  0
    1.8439   -0.1626    0.0000 C   0  0  0  0  0  0  0  0  0  0  0  0
    1.4314    0.5519    0.0000 O   0  0  0  0  0  0  0  0  0  0  0  0
    1.0189   -1.5915    0.0000 C   0  0  0  0  0  0  0  0  0  0  0  0
    0.1939   -1.5915    0.0000 O   0  0  0  0  0  0  0  0  0  0  0  0
  1  2  1  0  0  0  0
  1  3  1  0  0  0  0
  3  4  1  0  0  0  0
  4  5  1  0  0  0  0
  3  6  1  0  0  0  0
  6  7  1  0  0  0  0
  3  8  1  0  0  0  0
  8  9  1  0  0  0  0
M  END
> <ChemID>
100567

> <CAS>
115-77-5

> <Original_SMILES>
OCC(CO)(CO)CO

> <preferred_name>
Pentaerythritol

> <dsstox_substance_id>
DTXSID2026943

> <dsstox_compound_id>
DTXCID806943

> <qc_level>
DSSTox_Low

> <Canonical_QSARr>
OCC(CO)(CO)CO

> <InChI_Code_QSARr>
InChI=1S/C5H12O4/c6-1-5(2-7,3-8)4-9/h6-9H,1-4H2

> <InChI Key_QSARr>
WXZMFSXDPGVJKK-UHFFFAOYSA-N

> <Salt_Solvent>


> <Salt_Solvent_ID>
0

> <MPID>
100577

> <Tr_1_Tst_0>
1

> <Ready_Biodeg>
1.0

$$$$
Row558
  Mrv171c012251911052D          

 23 25  0  0  0  0            999 V2000
    4.6081   -3.9088    0.0000 C   0  0  0  0  0  0  0  0  0  0  0  0
    3.8936   -3.4963    0.0000 C   0  0  0  0  0  0  0  0  0  0  0  0
    3.8936   -2.6713    0.0000 O   0  0  0  0  0  0  0  0  0  0  0  0
    3.1792   -2.2588    0.0000 P   0  0  0  0  0  0  0  0  0  0  0  0
    2.4647   -1.8463    0.0000 O   0  0  0  0  0  0  0  0  0  0  0  0
    1.7502   -2.2588    0.0000 C   0  0  0  0  0  0  0  0  0  0  0  0
    1.0357   -1.8463    0.0000 C   0  0  0  0  0  0  0  0  0  0  0  0
    0.3213   -2.2588    0.0000 C   0  0  0  0  0  0  0  0  0  0  0  0
    0.3213   -3.0838    0.0000 C   0  0  0  0  0  0  0  0  0  0  0  0
    1.0357   -3.4963    0.0000 C   0  0  0  0  0  0  0  0  0  0  0  0
    1.7502   -3.0838    0.0000 C   0  0  0  0  0  0  0  0  0  0  0  0
    3.5917   -1.5443    0.0000 O   0  0  0  0  0  0  0  0  0  0  0  0
    3.1792   -0.8299    0.0000 C   0  0  0  0  0  0  0  0  0  0  0  0
    3.5917   -0.1154    0.0000 C   0  0  0  0  0  0  0  0  0  0  0  0
    3.1792    0.5991    0.0000 C   0  0  0  0  0  0  0  0  0  0  0  0
    2.3542    0.5991    0.0000 C   0  0  0  0  0  0  0  0  0  0  0  0
    1.9417   -0.1154    0.0000 C   0  0  0  0  0  0  0  0  0  0  0  0
    2.3542   -0.8299    0.0000 C   0  0  0  0  0  0  0  0  0  0  0  0
    2.7667   -2.9733    0.0000 O   0  0  0  0  0  0  0  0  0  0  0  0
    3.1792   -3.9088    0.0000 C   0  0  0  0  0  0  0  0  0  0  0  0
    3.1792   -4.7338    0.0000 C   0  0  0  0  0  0  0  0  0  0  0  0
    3.8936   -5.1463    0.0000 C   0  0  0  0  0  0  0  0  0  0  0  0
    4.6081   -4.7338    0.0000 C   0  0  0  0  0  0  0  0  0  0  0  0
  2  1  1  0  0  0  0
  2  3  1  0  0  0  0
  3  4  1  0  0  0  0
  4  5  1  0  0  0  0
  5  6  1  0  0  0  0
  7  6  1  0  0  0  0
  8  7  2  0  0  0  0
  9  8  1  0  0  0  0
 10  9  2  0  0  0  0
 11 10  1  0  0  0  0
  6 11  2  0  0  0  0
  4 12  1  0  0  0  0
 12 13  1  0  0  0  0
 14 13  1  0  0  0  0
 15 14  2  0  0  0  0
 16 15  1  0  0  0  0
 17 16  2  0  0  0  0
 18 17  1  0  0  0  0
 13 18  2  0  0  0  0
  4 19  2  0  0  0  0
 20  2  2  0  0  0  0
 21 20  1  0  0  0  0
 22 21  2  0  0  0  0
 23 22  1  0  0  0  0
  1 23  2  0  0  0  0
M  END
> <ChemID>
100568

> <CAS>
115-86-6

> <Original_SMILES>
O=P(Oc1ccccc1)(Oc1ccccc1)Oc1ccccc1

> <preferred_name>
Triphenyl phosphate

> <dsstox_substance_id>
DTXSID1021952

> <dsstox_compound_id>
DTXCID201952

> <qc_level>
DSSTox_High

> <Canonical_QSARr>
O=P(OC1C=CC=CC=1)(OC1C=CC=CC=1)OC1C=CC=CC=1

> <InChI_Code_QSARr>
InChI=1S/C18H15O4P/c19-23(20-16-10-4-1-5-11-16,21-17-12-6-2-7-13-17)22-18-14-8-3-9-15-18/h1-15H

> <InChI Key_QSARr>
XZZNDPSIHUTMOC-UHFFFAOYSA-N

> <Salt_Solvent>


> <Salt_Solvent_ID>
0

> <MPID>
100578

> <Tr_1_Tst_0>
1

> <Ready_Biodeg>
1.0

$$$$
Row559
  Mrv171c012251911052D          

 14 13  0  0  0  0            999 V2000
    2.3737   -2.0958    0.0000 O   0  0  0  0  0  0  0  0  0  0  0  0
    3.1987   -2.0958    0.0000 P   0  0  0  0  0  0  0  0  0  0  0  0
    3.1987   -2.9208    0.0000 O   0  0  0  0  0  0  0  0  0  0  0  0
    2.4842   -3.3333    0.0000 C   0  0  0  0  0  0  0  0  0  0  0  0
    1.7697   -2.9208    0.0000 C   0  0  0  0  0  0  0  0  0  0  0  0
    1.0553   -3.3333    0.0000 Cl  0  0  0  0  0  0  0  0  0  0  0  0
    3.1987   -1.2708    0.0000 O   0  0  0  0  0  0  0  0  0  0  0  0
    2.4842   -0.8583    0.0000 C   0  0  0  0  0  0  0  0  0  0  0  0
    2.4842   -0.0333    0.0000 C   0  0  0  0  0  0  0  0  0  0  0  0
    1.7697    0.3792    0.0000 Cl  0  0  0  0  0  0  0  0  0  0  0  0
    4.0237   -2.0958    0.0000 O   0  0  0  0  0  0  0  0  0  0  0  0
    4.4362   -2.8102    0.0000 C   0  0  0  0  0  0  0  0  0  0  0  0
    4.0237   -3.5247    0.0000 C   0  0  0  0  0  0  0  0  0  0  0  0
    3.1987   -3.5247    0.0000 Cl  0  0  0  0  0  0  0  0  0  0  0  0
  1  2  2  0  0  0  0
  2  3  1  0  0  0  0
  3  4  1  0  0  0  0
  4  5  1  0  0  0  0
  5  6  1  0  0  0  0
  2  7  1  0  0  0  0
  7  8  1  0  0  0  0
  8  9  1  0  0  0  0
  9 10  1  0  0  0  0
  2 11  1  0  0  0  0
 11 12  1  0  0  0  0
 12 13  1  0  0  0  0
 13 14  1  0  0  0  0
M  END
> <ChemID>
100569

> <CAS>
115-96-8

> <Original_SMILES>
O=P(OCCCl)(OCCCl)OCCCl

> <preferred_name>
Tris(2-chloroethyl) phosphate

> <dsstox_substance_id>
DTXSID5021411

> <dsstox_compound_id>
DTXCID601411

> <qc_level>
DSSTox_High

> <Canonical_QSARr>
O=P(OCCCl)(OCCCl)OCCCl

> <InChI_Code_QSARr>
InChI=1S/C6H12Cl3O4P/c7-1-4-11-14(10,12-5-2-8)13-6-3-9/h1-6H2

> <InChI Key_QSARr>
HQUQLFOMPYWACS-UHFFFAOYSA-N

> <Salt_Solvent>


> <Salt_Solvent_ID>
0

> <MPID>
100579

> <Tr_1_Tst_0>
1

> <Ready_Biodeg>
0.0

$$$$
Row560
  Mrv171c012251911052D          

  5  4  0  0  0  0            999 V2000
    2.0694   -0.9750    0.0000 O   0  0  0  0  0  0  0  0  0  0  0  0
    1.2444   -0.9750    0.0000 C   0  0  0  0  0  0  0  0  0  0  0  0
    0.8319   -1.6895    0.0000 C   0  0  0  0  0  0  0  0  0  0  0  0
    0.8319   -0.2605    0.0000 C   0  0  0  0  0  0  0  0  0  0  0  0
    0.0069   -0.2605    0.0000 O   0  0  0  0  0  0  0  0  0  0  0  0
  1  2  2  0  0  0  0
  2  3  1  0  0  0  0
  2  4  1  0  0  0  0
  4  5  1  0  0  0  0
M  END
> <ChemID>
100570

> <CAS>
116-09-6

> <Original_SMILES>
CC(=O)CO

> <preferred_name>
Hydroxyacetone

> <dsstox_substance_id>
DTXSID8051590

> <dsstox_compound_id>
DTXCID2030142

> <qc_level>
DSSTox_High

> <Canonical_QSARr>
CC(=O)CO

> <InChI_Code_QSARr>
InChI=1S/C3H6O2/c1-3(5)2-4/h4H,2H2,1H3

> <InChI Key_QSARr>
XLSMFKSTNGKWQX-UHFFFAOYSA-N

> <Salt_Solvent>


> <Salt_Solvent_ID>
0

> <MPID>
100580

> <Tr_1_Tst_0>
0

> <Ready_Biodeg>
1.0

$$$$
Row561
  Mrv171c012251911052D          

 19 20  0  0  0  0            999 V2000
    2.5634   -2.5355    0.0000 O   0  0  0  0  0  0  0  0  0  0  0  0
    1.7384   -2.5355    0.0000 S   0  0  0  0  0  0  0  0  0  0  0  0
    1.7384   -1.7105    0.0000 C   0  0  0  0  0  0  0  0  0  0  0  0
    2.4528   -1.2980    0.0000 C   0  0  0  0  0  0  0  0  0  0  0  0
    2.4528   -0.4730    0.0000 C   0  0  0  0  0  0  0  0  0  0  0  0
    1.7384   -0.0605    0.0000 C   0  0  0  0  0  0  0  0  0  0  0  0
    1.7384    0.7645    0.0000 Cl  0  0  0  0  0  0  0  0  0  0  0  0
    1.0239   -0.4730    0.0000 C   0  0  0  0  0  0  0  0  0  0  0  0
    1.0239   -1.2980    0.0000 C   0  0  0  0  0  0  0  0  0  0  0  0
    1.7384   -3.3605    0.0000 C   0  0  0  0  0  0  0  0  0  0  0  0
    1.0239   -3.7730    0.0000 C   0  0  0  0  0  0  0  0  0  0  0  0
    0.3094   -3.3605    0.0000 Cl  0  0  0  0  0  0  0  0  0  0  0  0
    1.0239   -4.5980    0.0000 C   0  0  0  0  0  0  0  0  0  0  0  0
    1.7384   -5.0105    0.0000 C   0  0  0  0  0  0  0  0  0  0  0  0
    1.7384   -5.8355    0.0000 Cl  0  0  0  0  0  0  0  0  0  0  0  0
    2.4528   -4.5980    0.0000 C   0  0  0  0  0  0  0  0  0  0  0  0
    3.1673   -5.0105    0.0000 Cl  0  0  0  0  0  0  0  0  0  0  0  0
    2.4528   -3.7730    0.0000 C   0  0  0  0  0  0  0  0  0  0  0  0
    0.9134   -2.5355    0.0000 O   0  0  0  0  0  0  0  0  0  0  0  0
  1  2  2  0  0  0  0
  2  3  1  0  0  0  0
  4  3  1  0  0  0  0
  5  4  2  0  0  0  0
  6  5  1  0  0  0  0
  6  7  1  0  0  0  0
  8  6  2  0  0  0  0
  9  8  1  0  0  0  0
  3  9  2  0  0  0  0
  2 10  1  0  0  0  0
 11 10  1  0  0  0  0
 11 12  1  0  0  0  0
 13 11  2  0  0  0  0
 14 13  1  0  0  0  0
 14 15  1  0  0  0  0
 16 14  2  0  0  0  0
 16 17  1  0  0  0  0
 18 16  1  0  0  0  0
 10 18  2  0  0  0  0
  2 19  2  0  0  0  0
M  END
> <ChemID>
100571

> <CAS>
116-29-0

> <Original_SMILES>
O=S(=O)(c1cc(Cl)c(Cl)cc1Cl)c1ccc(Cl)cc1

> <preferred_name>
Tetradifon

> <dsstox_substance_id>
DTXSID7021316

> <dsstox_compound_id>
DTXCID401316

> <qc_level>
DSSTox_Low

> <Canonical_QSARr>
O=S(=O)(C1=CC(Cl)=C(Cl)C=C1Cl)C1C=CC(Cl)=CC=1

> <InChI_Code_QSARr>
InChI=1S/C12H6Cl4O2S/c13-7-1-3-8(4-2-7)19(17,18)12-6-10(15)9(14)5-11(12)16/h1-6H

> <InChI Key_QSARr>
MLGCXEBRWGEOQX-UHFFFAOYSA-N

> <Salt_Solvent>


> <Salt_Solvent_ID>
0

> <MPID>
100581

> <Tr_1_Tst_0>
1

> <Ready_Biodeg>
0.0

$$$$
Row562
  Mrv171c012251911052D          

 17 19  0  0  0  0            999 V2000
    2.8811    0.1348    0.0000 O   0  0  0  0  0  0  0  0  0  0  0  0
    2.8811   -0.6902    0.0000 C   0  0  0  0  0  0  0  0  0  0  0  0
    3.5956   -1.1027    0.0000 C   0  0  0  0  0  0  0  0  0  0  0  0
    4.3101   -0.6902    0.0000 C   0  0  0  0  0  0  0  0  0  0  0  0
    5.0245   -1.1027    0.0000 C   0  0  0  0  0  0  0  0  0  0  0  0
    5.0245   -1.9277    0.0000 C   0  0  0  0  0  0  0  0  0  0  0  0
    4.3101   -2.3402    0.0000 C   0  0  0  0  0  0  0  0  0  0  0  0
    3.5956   -1.9277    0.0000 C   0  0  0  0  0  0  0  0  0  0  0  0
    2.8811   -2.3402    0.0000 C   0  0  0  0  0  0  0  0  0  0  0  0
    2.8811   -3.1652    0.0000 O   0  0  0  0  0  0  0  0  0  0  0  0
    2.1666   -1.9277    0.0000 C   0  0  0  0  0  0  0  0  0  0  0  0
    1.4522   -2.3402    0.0000 C   0  0  0  0  0  0  0  0  0  0  0  0
    0.7377   -1.9277    0.0000 C   0  0  0  0  0  0  0  0  0  0  0  0
    0.7377   -1.1027    0.0000 C   0  0  0  0  0  0  0  0  0  0  0  0
    0.0232   -0.6902    0.0000 N   0  0  0  0  0  0  0  0  0  0  0  0
    1.4522   -0.6902    0.0000 C   0  0  0  0  0  0  0  0  0  0  0  0
    2.1666   -1.1027    0.0000 C   0  0  0  0  0  0  0  0  0  0  0  0
  1  2  2  0  0  0  0
  3  2  1  0  0  0  0
  3  4  1  0  0  0  0
  4  5  2  0  0  0  0
  5  6  1  0  0  0  0
  6  7  2  0  0  0  0
  7  8  1  0  0  0  0
  8  3  2  0  0  0  0
  9  8  1  0  0  0  0
  9 10  2  0  0  0  0
 11  9  1  0  0  0  0
 11 12  2  0  0  0  0
 12 13  1  0  0  0  0
 13 14  2  0  0  0  0
 14 15  1  0  0  0  0
 14 16  1  0  0  0  0
 16 17  2  0  0  0  0
  2 17  1  0  0  0  0
 17 11  1  0  0  0  0
M  END
> <ChemID>
100572

> <CAS>
117-79-3

> <Original_SMILES>
Nc1cc2c(cc1)C(=O)c1ccccc1C2=O

> <preferred_name>
2-Aminoanthraquinone

> <dsstox_substance_id>
DTXSID6020068

> <dsstox_compound_id>
DTXCID2068

> <qc_level>
DSSTox_Low

> <Canonical_QSARr>
NC1C=C2C(=CC=1)C(=O)C1C=CC=CC=1C2=O

> <InChI_Code_QSARr>
InChI=1S/C14H9NO2/c15-8-5-6-11-12(7-8)14(17)10-4-2-1-3-9(10)13(11)16/h1-7H,15H2

> <InChI Key_QSARr>
XOGPDSATLSAZEK-UHFFFAOYSA-N

> <Salt_Solvent>


> <Salt_Solvent_ID>
0

> <MPID>
100582

> <Tr_1_Tst_0>
1

> <Ready_Biodeg>
0.0

$$$$
Row563
  Mrv171c012251911052D          

 14 15  0  0  0  0            999 V2000
    1.2727   -3.5619    0.0000 O   0  0  0  0  0  0  0  0  0  0  0  0
    1.2727   -2.7369    0.0000 C   0  0  0  0  0  0  0  0  0  0  0  0
    0.5582   -2.3244    0.0000 C   0  0  0  0  0  0  0  0  0  0  0  0
   -0.1562   -2.7369    0.0000 Cl  0  0  0  0  0  0  0  0  0  0  0  0
    0.5582   -1.4994    0.0000 C   0  0  0  0  0  0  0  0  0  0  0  0
   -0.1562   -1.0869    0.0000 Cl  0  0  0  0  0  0  0  0  0  0  0  0
    1.2727   -1.0869    0.0000 C   0  0  0  0  0  0  0  0  0  0  0  0
    1.2727   -0.2619    0.0000 O   0  0  0  0  0  0  0  0  0  0  0  0
    1.9872   -1.4994    0.0000 C   0  0  0  0  0  0  0  0  0  0  0  0
    2.7016   -1.0869    0.0000 C   0  0  0  0  0  0  0  0  0  0  0  0
    3.4161   -1.4994    0.0000 C   0  0  0  0  0  0  0  0  0  0  0  0
    3.4161   -2.3244    0.0000 C   0  0  0  0  0  0  0  0  0  0  0  0
    2.7016   -2.7369    0.0000 C   0  0  0  0  0  0  0  0  0  0  0  0
    1.9872   -2.3244    0.0000 C   0  0  0  0  0  0  0  0  0  0  0  0
  1  2  2  0  0  0  0
  3  2  1  0  0  0  0
  3  4  1  0  0  0  0
  5  3  2  0  0  0  0
  5  6  1  0  0  0  0
  7  5  1  0  0  0  0
  7  8  2  0  0  0  0
  9  7  1  0  0  0  0
  9 10  1  0  0  0  0
 10 11  2  0  0  0  0
 11 12  1  0  0  0  0
 12 13  2  0  0  0  0
 13 14  1  0  0  0  0
  2 14  1  0  0  0  0
 14  9  2  0  0  0  0
M  END
> <ChemID>
100573

> <CAS>
117-80-6

> <Original_SMILES>
O=C1c2ccccc2C(=O)C(Cl)=C1Cl

> <preferred_name>
Dichlone

> <dsstox_substance_id>
DTXSID7020425

> <dsstox_compound_id>
DTXCID30425

> <qc_level>
DSSTox_Low

> <Canonical_QSARr>
O=C1C2C=CC=CC=2C(=O)C(Cl)=C1Cl

> <InChI_Code_QSARr>
InChI=1S/C10H4Cl2O2/c11-7-8(12)10(14)6-4-2-1-3-5(6)9(7)13/h1-4H

> <InChI Key_QSARr>
SVPKNMBRVBMTLB-UHFFFAOYSA-N

> <Salt_Solvent>


> <Salt_Solvent_ID>
0

> <MPID>
100583

> <Tr_1_Tst_0>
1

> <Ready_Biodeg>
0.0

$$$$
Row564
  Mrv171c012251911052D          

 28 28  0  0  0  0            999 V2000
    4.1649   -1.8641    0.0000 O   0  0  0  0  0  0  0  0  0  0  0  0
    4.1649   -2.6891    0.0000 C   0  0  0  0  0  0  0  0  0  0  0  0
    3.4505   -3.1016    0.0000 O   0  0  0  0  0  0  0  0  0  0  0  0
    2.7360   -2.6891    0.0000 C   0  0  0  0  0  0  0  0  0  0  0  0
    2.0215   -3.1016    0.0000 C   0  0  0  0  0  0  0  0  0  0  0  0
    2.0215   -3.9266    0.0000 C   0  0  0  0  0  0  0  0  0  0  0  0
    1.3070   -4.3391    0.0000 C   0  0  0  0  0  0  0  0  0  0  0  0
    1.3070   -2.6891    0.0000 C   0  0  0  0  0  0  0  0  0  0  0  0
    0.5926   -3.1016    0.0000 C   0  0  0  0  0  0  0  0  0  0  0  0
   -0.1219   -2.6891    0.0000 C   0  0  0  0  0  0  0  0  0  0  0  0
   -0.8364   -3.1016    0.0000 C   0  0  0  0  0  0  0  0  0  0  0  0
    4.8794   -3.1016    0.0000 C   0  0  0  0  0  0  0  0  0  0  0  0
    4.8794   -3.9266    0.0000 C   0  0  0  0  0  0  0  0  0  0  0  0
    5.5939   -4.3391    0.0000 C   0  0  0  0  0  0  0  0  0  0  0  0
    6.3083   -3.9266    0.0000 C   0  0  0  0  0  0  0  0  0  0  0  0
    6.3083   -3.1016    0.0000 C   0  0  0  0  0  0  0  0  0  0  0  0
    5.5939   -2.6891    0.0000 C   0  0  0  0  0  0  0  0  0  0  0  0
    5.5939   -1.8641    0.0000 C   0  0  0  0  0  0  0  0  0  0  0  0
    6.3083   -1.4516    0.0000 O   0  0  0  0  0  0  0  0  0  0  0  0
    7.0228   -1.8641    0.0000 C   0  0  0  0  0  0  0  0  0  0  0  0
    7.7373   -1.4516    0.0000 C   0  0  0  0  0  0  0  0  0  0  0  0
    7.7373   -0.6266    0.0000 C   0  0  0  0  0  0  0  0  0  0  0  0
    8.4518   -0.2141    0.0000 C   0  0  0  0  0  0  0  0  0  0  0  0
    8.4518   -1.8641    0.0000 C   0  0  0  0  0  0  0  0  0  0  0  0
    9.1662   -1.4516    0.0000 C   0  0  0  0  0  0  0  0  0  0  0  0
    9.8807   -1.8641    0.0000 C   0  0  0  0  0  0  0  0  0  0  0  0
   10.5952   -1.4516    0.0000 C   0  0  0  0  0  0  0  0  0  0  0  0
    4.8794   -1.4516    0.0000 O   0  0  0  0  0  0  0  0  0  0  0  0
  1  2  2  0  0  0  0
  2  3  1  0  0  0  0
  3  4  1  0  0  0  0
  4  5  1  0  0  0  0
  5  6  1  0  0  0  0
  6  7  1  0  0  0  0
  5  8  1  0  0  0  0
  8  9  1  0  0  0  0
  9 10  1  0  0  0  0
 10 11  1  0  0  0  0
  2 12  1  0  0  0  0
 13 12  1  0  0  0  0
 14 13  2  0  0  0  0
 15 14  1  0  0  0  0
 16 15  2  0  0  0  0
 17 16  1  0  0  0  0
 12 17  2  0  0  0  0
 17 18  1  0  0  0  0
 18 19  1  0  0  0  0
 19 20  1  0  0  0  0
 20 21  1  0  0  0  0
 21 22  1  0  0  0  0
 22 23  1  0  0  0  0
 21 24  1  0  0  0  0
 24 25  1  0  0  0  0
 25 26  1  0  0  0  0
 26 27  1  0  0  0  0
 18 28  2  0  0  0  0
M  END
> <ChemID>
100574

> <CAS>
117-81-7

> <Original_SMILES>
CCCCC(COC(=O)c1ccccc1C(=O)OCC(CCCC)CC)CC

> <preferred_name>
Di(2-ethylhexyl) phthalate

> <dsstox_substance_id>
DTXSID5020607

> <dsstox_compound_id>
DTXCID70607

> <qc_level>
DSSTox_Low

> <Canonical_QSARr>
CCCCC(COC(=O)C1C=CC=CC=1C(=O)OCC(CCCC)CC)CC

> <InChI_Code_QSARr>
InChI=1S/C24H38O4/c1-5-9-13-19(7-3)17-27-23(25)21-15-11-12-16-22(21)24(26)28-18-20(8-4)14-10-6-2/h11-12,15-16,19-20H,5-10,13-14,17-18H2,1-4H3

> <InChI Key_QSARr>
BJQHLKABXJIVAM-UHFFFAOYSA-N

> <Salt_Solvent>


> <Salt_Solvent_ID>
0

> <MPID>
100584

> <Tr_1_Tst_0>
0

> <Ready_Biodeg>
0.0

$$$$
Row565
  Mrv171c012251911052D          

 28 28  0  0  0  0            999 V2000
    3.1301   -1.2221    0.0000 C   0  0  0  0  0  0  0  0  0  0  0  0
    3.1301   -0.3971    0.0000 C   0  0  0  0  0  0  0  0  0  0  0  0
    2.4157    0.0154    0.0000 C   0  0  0  0  0  0  0  0  0  0  0  0
    1.7012   -0.3971    0.0000 C   0  0  0  0  0  0  0  0  0  0  0  0
    1.7012   -1.2221    0.0000 C   0  0  0  0  0  0  0  0  0  0  0  0
    2.4157   -1.6346    0.0000 C   0  0  0  0  0  0  0  0  0  0  0  0
    2.4157   -2.4596    0.0000 C   0  0  0  0  0  0  0  0  0  0  0  0
    1.7012   -2.8721    0.0000 O   0  0  0  0  0  0  0  0  0  0  0  0
    1.7012   -3.6971    0.0000 C   0  0  0  0  0  0  0  0  0  0  0  0
    0.9867   -4.1096    0.0000 C   0  0  0  0  0  0  0  0  0  0  0  0
    0.9867   -4.9346    0.0000 C   0  0  0  0  0  0  0  0  0  0  0  0
    0.2722   -5.3471    0.0000 C   0  0  0  0  0  0  0  0  0  0  0  0
    0.2722   -6.1721    0.0000 C   0  0  0  0  0  0  0  0  0  0  0  0
   -0.4422   -6.5846    0.0000 C   0  0  0  0  0  0  0  0  0  0  0  0
   -0.4422   -7.4096    0.0000 C   0  0  0  0  0  0  0  0  0  0  0  0
   -1.1567   -7.8221    0.0000 C   0  0  0  0  0  0  0  0  0  0  0  0
    3.1301   -2.8721    0.0000 O   0  0  0  0  0  0  0  0  0  0  0  0
    3.8446   -1.6346    0.0000 C   0  0  0  0  0  0  0  0  0  0  0  0
    4.5591   -1.2221    0.0000 O   0  0  0  0  0  0  0  0  0  0  0  0
    5.2735   -1.6346    0.0000 C   0  0  0  0  0  0  0  0  0  0  0  0
    5.9880   -1.2221    0.0000 C   0  0  0  0  0  0  0  0  0  0  0  0
    6.7025   -1.6346    0.0000 C   0  0  0  0  0  0  0  0  0  0  0  0
    7.4169   -1.2221    0.0000 C   0  0  0  0  0  0  0  0  0  0  0  0
    8.1314   -1.6346    0.0000 C   0  0  0  0  0  0  0  0  0  0  0  0
    8.8459   -1.2221    0.0000 C   0  0  0  0  0  0  0  0  0  0  0  0
    9.5604   -1.6346    0.0000 C   0  0  0  0  0  0  0  0  0  0  0  0
   10.2748   -1.2221    0.0000 C   0  0  0  0  0  0  0  0  0  0  0  0
    3.8446   -2.4596    0.0000 O   0  0  0  0  0  0  0  0  0  0  0  0
  2  1  1  0  0  0  0
  3  2  2  0  0  0  0
  4  3  1  0  0  0  0
  5  4  2  0  0  0  0
  6  5  1  0  0  0  0
  1  6  2  0  0  0  0
  6  7  1  0  0  0  0
  7  8  1  0  0  0  0
  8  9  1  0  0  0  0
  9 10  1  0  0  0  0
 10 11  1  0  0  0  0
 11 12  1  0  0  0  0
 12 13  1  0  0  0  0
 13 14  1  0  0  0  0
 14 15  1  0  0  0  0
 15 16  1  0  0  0  0
  7 17  2  0  0  0  0
  1 18  1  0  0  0  0
 18 19  1  0  0  0  0
 19 20  1  0  0  0  0
 20 21  1  0  0  0  0
 21 22  1  0  0  0  0
 22 23  1  0  0  0  0
 23 24  1  0  0  0  0
 24 25  1  0  0  0  0
 25 26  1  0  0  0  0
 26 27  1  0  0  0  0
 18 28  2  0  0  0  0
M  END
> <ChemID>
100575

> <CAS>
117-84-0

> <Original_SMILES>
CCCCCCCCOC(=O)c1ccccc1C(=O)OCCCCCCCC

> <preferred_name>
Dioctyl phthalate

> <dsstox_substance_id>
DTXSID1021956

> <dsstox_compound_id>
DTXCID801956

> <qc_level>
DSSTox_Low

> <Canonical_QSARr>
CCCCCCCCOC(=O)C1C=CC=CC=1C(=O)OCCCCCCCC

> <InChI_Code_QSARr>
InChI=1S/C24H38O4/c1-3-5-7-9-11-15-19-27-23(25)21-17-13-14-18-22(21)24(26)28-20-16-12-10-8-6-4-2/h13-14,17-18H,3-12,15-16,19-20H2,1-2H3

> <InChI Key_QSARr>
MQIUGAXCHLFZKX-UHFFFAOYSA-N

> <Salt_Solvent>


> <Salt_Solvent_ID>
0

> <MPID>
100585

> <Tr_1_Tst_0>
1

> <Ready_Biodeg>
1.0

$$$$
Row566
  Mrv171c012251911052D          

 13 14  0  0  0  0            999 V2000
   -0.0000   -2.4750    0.0000 N   0  0  0  0  0  0  0  0  0  0  0  0
   -0.7145   -2.8875    0.0000 C   0  0  0  0  0  0  0  0  0  0  0  0
   -0.7145   -3.7125    0.0000 C   0  0  0  0  0  0  0  0  0  0  0  0
   -0.0000   -1.6500    0.0000 C   0  0  0  0  0  0  0  0  0  0  0  0
   -0.7145   -1.2375    0.0000 C   0  0  0  0  0  0  0  0  0  0  0  0
   -0.7145   -0.4125    0.0000 C   0  0  0  0  0  0  0  0  0  0  0  0
   -0.0000    0.0000    0.0000 C   0  0  0  0  0  0  0  0  0  0  0  0
    0.7145   -0.4125    0.0000 C   0  0  0  0  0  0  0  0  0  0  0  0
    1.4289    0.0000    0.0000 C   0  0  0  0  0  0  0  0  0  0  0  0
    2.1434   -0.4125    0.0000 C   0  0  0  0  0  0  0  0  0  0  0  0
    2.1434   -1.2375    0.0000 C   0  0  0  0  0  0  0  0  0  0  0  0
    1.4289   -1.6500    0.0000 C   0  0  0  0  0  0  0  0  0  0  0  0
    0.7145   -1.2375    0.0000 C   0  0  0  0  0  0  0  0  0  0  0  0
  1  2  1  0  0  0  0
  2  3  1  0  0  0  0
  1  4  1  0  0  0  0
  5  4  2  0  0  0  0
  6  5  1  0  0  0  0
  7  6  2  0  0  0  0
  8  7  1  0  0  0  0
  8  9  2  0  0  0  0
  9 10  1  0  0  0  0
 10 11  2  0  0  0  0
 11 12  1  0  0  0  0
 12 13  2  0  0  0  0
  4 13  1  0  0  0  0
 13  8  1  0  0  0  0
M  END
> <ChemID>
100576

> <CAS>
118-44-5

> <Original_SMILES>
CCNc1cccc2ccccc21

> <preferred_name>
1-Naphthalenamine, N-ethyl-

> <dsstox_substance_id>
DTXSID8059473

> <dsstox_compound_id>
DTXCID8033433

> <qc_level>
Public_High

> <Canonical_QSARr>
CCNC1=CC=CC2=CC=CC=C21

> <InChI_Code_QSARr>
InChI=1S/C12H13N/c1-2-13-12-9-5-7-10-6-3-4-8-11(10)12/h3-9,13H,2H2,1H3

> <InChI Key_QSARr>
KDFFXYVOTKKBDI-UHFFFAOYSA-N

> <Salt_Solvent>


> <Salt_Solvent_ID>
0

> <MPID>
100586

> <Tr_1_Tst_0>
1

> <Ready_Biodeg>
0.0

$$$$
Row567
  Mrv171c012251911052D          

 12 12  0  0  0  0            999 V2000
    2.9036   -1.7870    0.0000 C   0  0  0  0  0  0  0  0  0  0  0  0
    2.1892   -1.3745    0.0000 C   0  0  0  0  0  0  0  0  0  0  0  0
    2.1892   -0.5495    0.0000 C   0  0  0  0  0  0  0  0  0  0  0  0
    1.4747   -0.1370    0.0000 O   0  0  0  0  0  0  0  0  0  0  0  0
    1.4747    0.6880    0.0000 C   0  0  0  0  0  0  0  0  0  0  0  0
    0.7602    1.1005    0.0000 C   0  0  0  0  0  0  0  0  0  0  0  0
    2.9036   -0.1370    0.0000 O   0  0  0  0  0  0  0  0  0  0  0  0
    1.4747   -1.7870    0.0000 C   0  0  0  0  0  0  0  0  0  0  0  0
    0.7602   -1.3745    0.0000 O   0  0  0  0  0  0  0  0  0  0  0  0
    1.4747   -2.6120    0.0000 C   0  0  0  0  0  0  0  0  0  0  0  0
    2.1892   -3.0245    0.0000 C   0  0  0  0  0  0  0  0  0  0  0  0
    2.9036   -2.6120    0.0000 C   0  0  0  0  0  0  0  0  0  0  0  0
  2  1  1  0  0  0  0
  2  3  1  0  0  0  0
  3  4  1  0  0  0  0
  4  5  1  0  0  0  0
  5  6  1  0  0  0  0
  3  7  2  0  0  0  0
  8  2  2  0  0  0  0
  8  9  1  0  0  0  0
 10  8  1  0  0  0  0
 11 10  2  0  0  0  0
 12 11  1  0  0  0  0
  1 12  2  0  0  0  0
M  END
> <ChemID>
100577

> <CAS>
118-61-6

> <Original_SMILES>
CCOC(=O)c1ccccc1O

> <preferred_name>
Ethyl salicylate

> <dsstox_substance_id>
DTXSID1021958

> <dsstox_compound_id>
DTXCID601958

> <qc_level>
DSSTox_Low

> <Canonical_QSARr>
CCOC(=O)C1C=CC=CC=1O

> <InChI_Code_QSARr>
InChI=1S/C9H10O3/c1-2-12-9(11)7-5-3-4-6-8(7)10/h3-6,10H,2H2,1H3

> <InChI Key_QSARr>
GYCKQBWUSACYIF-UHFFFAOYSA-N

> <Salt_Solvent>


> <Salt_Solvent_ID>
0

> <MPID>
100587

> <Tr_1_Tst_0>
1

> <Ready_Biodeg>
1.0

$$$$
Row568
  Mrv171c012251911052D          

 12 12  0  0  0  0            999 V2000
    3.0761   -0.6015    0.0000 Cl  0  0  0  0  0  0  0  0  0  0  0  0
    2.3616   -1.0140    0.0000 C   0  0  0  0  0  0  0  0  0  0  0  0
    1.6472   -0.6015    0.0000 C   0  0  0  0  0  0  0  0  0  0  0  0
    1.6472    0.2235    0.0000 Cl  0  0  0  0  0  0  0  0  0  0  0  0
    0.9327   -1.0140    0.0000 C   0  0  0  0  0  0  0  0  0  0  0  0
    0.2182   -0.6015    0.0000 Cl  0  0  0  0  0  0  0  0  0  0  0  0
    0.9327   -1.8390    0.0000 C   0  0  0  0  0  0  0  0  0  0  0  0
    0.2182   -2.2515    0.0000 Cl  0  0  0  0  0  0  0  0  0  0  0  0
    1.6472   -2.2515    0.0000 C   0  0  0  0  0  0  0  0  0  0  0  0
    1.6472   -3.0765    0.0000 Cl  0  0  0  0  0  0  0  0  0  0  0  0
    2.3616   -1.8390    0.0000 C   0  0  0  0  0  0  0  0  0  0  0  0
    3.0761   -2.2515    0.0000 Cl  0  0  0  0  0  0  0  0  0  0  0  0
  1  2  1  0  0  0  0
  3  2  1  0  0  0  0
  3  4  1  0  0  0  0
  5  3  2  0  0  0  0
  5  6  1  0  0  0  0
  7  5  1  0  0  0  0
  7  8  1  0  0  0  0
  9  7  2  0  0  0  0
  9 10  1  0  0  0  0
 11  9  1  0  0  0  0
  2 11  2  0  0  0  0
 11 12  1  0  0  0  0
M  END
> <ChemID>
100578

> <CAS>
118-74-1

> <Original_SMILES>
Clc1c(Cl)c(Cl)c(Cl)c(Cl)c1Cl

> <preferred_name>
Hexachlorobenzene

> <dsstox_substance_id>
DTXSID2020682

> <dsstox_compound_id>
DTXCID80682

> <qc_level>
DSSTox_Low

> <Canonical_QSARr>
ClC1C(Cl)=C(Cl)C(Cl)=C(Cl)C=1Cl

> <InChI_Code_QSARr>
InChI=1S/C6Cl6/c7-1-2(8)4(10)6(12)5(11)3(1)9

> <InChI Key_QSARr>
CKAPSXZOOQJIBF-UHFFFAOYSA-N

> <Salt_Solvent>


> <Salt_Solvent_ID>
0

> <MPID>
100588

> <Tr_1_Tst_0>
0

> <Ready_Biodeg>
0.0

$$$$
Row569
  Mrv171c012251911052D          

 10 10  0  0  0  0            999 V2000
    3.0980   -0.6840    0.0000 O   0  0  0  0  0  0  0  0  0  0  0  0
    2.3835   -1.0965    0.0000 C   0  0  0  0  0  0  0  0  0  0  0  0
    1.6691   -0.6840    0.0000 C   0  0  0  0  0  0  0  0  0  0  0  0
    1.6691    0.1410    0.0000 Br  0  0  0  0  0  0  0  0  0  0  0  0
    0.9546   -1.0965    0.0000 C   0  0  0  0  0  0  0  0  0  0  0  0
    0.9546   -1.9215    0.0000 C   0  0  0  0  0  0  0  0  0  0  0  0
    0.2401   -2.3340    0.0000 Br  0  0  0  0  0  0  0  0  0  0  0  0
    1.6691   -2.3340    0.0000 C   0  0  0  0  0  0  0  0  0  0  0  0
    2.3835   -1.9215    0.0000 C   0  0  0  0  0  0  0  0  0  0  0  0
    3.0980   -2.3340    0.0000 Br  0  0  0  0  0  0  0  0  0  0  0  0
  1  2  1  0  0  0  0
  3  2  1  0  0  0  0
  3  4  1  0  0  0  0
  5  3  2  0  0  0  0
  6  5  1  0  0  0  0
  6  7  1  0  0  0  0
  8  6  2  0  0  0  0
  9  8  1  0  0  0  0
  2  9  2  0  0  0  0
  9 10  1  0  0  0  0
M  END
> <ChemID>
100579

> <CAS>
118-79-6

> <Original_SMILES>
Oc1c(Br)cc(Br)cc1Br

> <preferred_name>
2,4,6-Tribromophenol

> <dsstox_substance_id>
DTXSID6021959

> <dsstox_compound_id>
DTXCID001959

> <qc_level>
DSSTox_Low

> <Canonical_QSARr>
OC1C(Br)=CC(Br)=CC=1Br

> <InChI_Code_QSARr>
InChI=1S/C6H3Br3O/c7-3-1-4(8)6(10)5(9)2-3/h1-2,10H

> <InChI Key_QSARr>
BSWWXRFVMJHFBN-UHFFFAOYSA-N

> <Salt_Solvent>


> <Salt_Solvent_ID>
0

> <MPID>
100589

> <Tr_1_Tst_0>
1

> <Ready_Biodeg>
1.0

$$$$
Row570
  Mrv171c012251911052D          

 31 32  0  0  0  0            999 V2000
    5.9423   -4.1372    0.0000 C   0  0  0  0  0  0  0  0  0  0  0  0
    6.6567   -4.5497    0.0000 C   0  0  0  0  0  0  0  0  0  0  0  0
    6.3548   -3.4228    0.0000 C   0  0  0  0  0  0  0  0  0  0  0  0
    5.5298   -4.8517    0.0000 C   0  0  0  0  0  0  0  0  0  0  0  0
    5.2278   -3.7247    0.0000 C   0  0  0  0  0  0  0  0  0  0  0  0
    5.2278   -2.8997    0.0000 C   0  0  0  0  0  0  0  0  0  0  0  0
    4.5133   -2.4872    0.0000 C   0  0  0  0  0  0  0  0  0  0  0  0
    4.5133   -1.6622    0.0000 C   0  0  0  0  0  0  0  0  0  0  0  0
    3.7989   -1.2497    0.0000 C   0  0  0  0  0  0  0  0  0  0  0  0
    3.7989   -0.4247    0.0000 C   0  0  0  0  0  0  0  0  0  0  0  0
    3.0844   -0.0122    0.0000 C   0  0  0  0  0  0  0  0  0  0  0  0
    3.0844    0.8128    0.0000 C   0  0  0  0  0  0  0  0  0  0  0  0
    3.0844    1.6378    0.0000 C   0  0  0  0  0  0  0  0  0  0  0  0
    3.9094    0.8128    0.0000 C   0  0  0  0  0  0  0  0  0  0  0  0
    2.2594    0.8128    0.0000 C   0  0  0  0  0  0  0  0  0  0  0  0
    2.3699   -0.4247    0.0000 C   0  0  0  0  0  0  0  0  0  0  0  0
    1.6554   -0.0122    0.0000 O   0  0  0  0  0  0  0  0  0  0  0  0
    2.3699   -1.2497    0.0000 C   0  0  0  0  0  0  0  0  0  0  0  0
    1.6554   -1.6622    0.0000 C   0  0  0  0  0  0  0  0  0  0  0  0
    0.9410   -2.0747    0.0000 C   0  0  0  0  0  0  0  0  0  0  0  0
    2.0679   -2.3767    0.0000 C   0  0  0  0  0  0  0  0  0  0  0  0
    1.2429   -0.9478    0.0000 C   0  0  0  0  0  0  0  0  0  0  0  0
    3.0844   -1.6622    0.0000 C   0  0  0  0  0  0  0  0  0  0  0  0
    3.7989   -2.8997    0.0000 C   0  0  0  0  0  0  0  0  0  0  0  0
    3.7989   -3.7247    0.0000 C   0  0  0  0  0  0  0  0  0  0  0  0
    3.0844   -4.1372    0.0000 C   0  0  0  0  0  0  0  0  0  0  0  0
    2.3699   -4.5497    0.0000 C   0  0  0  0  0  0  0  0  0  0  0  0
    3.4969   -4.8517    0.0000 C   0  0  0  0  0  0  0  0  0  0  0  0
    2.6719   -3.4228    0.0000 C   0  0  0  0  0  0  0  0  0  0  0  0
    4.5133   -4.1372    0.0000 C   0  0  0  0  0  0  0  0  0  0  0  0
    4.5133   -4.9622    0.0000 O   0  0  0  0  0  0  0  0  0  0  0  0
  1  2  1  0  0  0  0
  1  3  1  0  0  0  0
  1  4  1  0  0  0  0
  1  5  1  0  0  0  0
  6  5  1  0  0  0  0
  7  6  2  0  0  0  0
  7  8  1  0  0  0  0
  8  9  1  0  0  0  0
 10  9  1  0  0  0  0
 11 10  2  0  0  0  0
 11 12  1  0  0  0  0
 12 13  1  0  0  0  0
 12 14  1  0  0  0  0
 12 15  1  0  0  0  0
 16 11  1  0  0  0  0
 16 17  1  0  0  0  0
 18 16  2  0  0  0  0
 18 19  1  0  0  0  0
 19 20  1  0  0  0  0
 19 21  1  0  0  0  0
 19 22  1  0  0  0  0
 23 18  1  0  0  0  0
  9 23  2  0  0  0  0
 24  7  1  0  0  0  0
 25 24  2  0  0  0  0
 25 26  1  0  0  0  0
 26 27  1  0  0  0  0
 26 28  1  0  0  0  0
 26 29  1  0  0  0  0
 30 25  1  0  0  0  0
  5 30  2  0  0  0  0
 30 31  1  0  0  0  0
M  END
> <ChemID>
100580

> <CAS>
118-82-1

> <Original_SMILES>
CC(C)(C)c1cc(Cc2cc(c(O)c(c2)C(C)(C)C)C(C)(C)C)cc(c1O)C(C)(C)C

> <preferred_name>
4,4'-Methylenebis(2,6-di-t-butylphenol)

> <dsstox_substance_id>
DTXSID7022411

> <dsstox_compound_id>
DTXCID702411

> <qc_level>
DSSTox_Low

> <Canonical_QSARr>
CC(C)(C)C1=CC(CC2=CC(=C(O)C(=C2)C(C)(C)C)C(C)(C)C)=CC(=C1O)C(C)(C)C

> <InChI_Code_QSARr>
InChI=1S/C29H44O2/c1-26(2,3)20-14-18(15-21(24(20)30)27(4,5)6)13-19-16-22(28(7,8)9)25(31)23(17-19)29(10,11)12/h14-17,30-31H,13H2,1-12H3

> <InChI Key_QSARr>
MDWVSAYEQPLWMX-UHFFFAOYSA-N

> <Salt_Solvent>


> <Salt_Solvent_ID>
0

> <MPID>
100590

> <Tr_1_Tst_0>
1

> <Ready_Biodeg>
0.0

$$$$
Row571
  Mrv171c012251911052D          

 14 14  0  0  0  0            999 V2000
    3.9975   -2.3571    0.0000 Cl  0  0  0  0  0  0  0  0  0  0  0  0
    3.9975   -1.5321    0.0000 C   0  0  0  0  0  0  0  0  0  0  0  0
    4.7120   -1.1196    0.0000 C   0  0  0  0  0  0  0  0  0  0  0  0
    4.7120   -0.2946    0.0000 C   0  0  0  0  0  0  0  0  0  0  0  0
    3.9975    0.1179    0.0000 C   0  0  0  0  0  0  0  0  0  0  0  0
    3.9975    0.9429    0.0000 N   0  3  0  0  0  0  0  0  0  0  0  0
    3.2830    1.3554    0.0000 O   0  0  0  0  0  0  0  0  0  0  0  0
    4.7120    1.3554    0.0000 O   0  5  0  0  0  0  0  0  0  0  0  0
    3.2830   -0.2946    0.0000 C   0  0  0  0  0  0  0  0  0  0  0  0
    2.5686    0.1179    0.0000 C   0  0  0  0  0  0  0  0  0  0  0  0
    1.8541    0.5304    0.0000 F   0  0  0  0  0  0  0  0  0  0  0  0
    2.1561   -0.5966    0.0000 F   0  0  0  0  0  0  0  0  0  0  0  0
    2.9811    0.8323    0.0000 F   0  0  0  0  0  0  0  0  0  0  0  0
    3.2830   -1.1196    0.0000 C   0  0  0  0  0  0  0  0  0  0  0  0
  1  2  1  0  0  0  0
  3  2  1  0  0  0  0
  4  3  2  0  0  0  0
  5  4  1  0  0  0  0
  5  6  1  0  0  0  0
  6  7  2  0  0  0  0
  6  8  1  0  0  0  0
  9  5  2  0  0  0  0
  9 10  1  0  0  0  0
 10 11  1  0  0  0  0
 10 12  1  0  0  0  0
 10 13  1  0  0  0  0
 14  9  1  0  0  0  0
  2 14  2  0  0  0  0
M  CHG  2   6   1   8  -1
M  END
> <ChemID>
100581

> <CAS>
118-83-2

> <Original_SMILES>
[O-][N+](=O)c1ccc(Cl)cc1C(F)(F)F

> <preferred_name>
5-Chloro-alpha,alpha,alpha-trifluoro-2-nitrotoluene

> <dsstox_substance_id>
DTXSID30151998

> <dsstox_compound_id>
DTXCID4074489

> <qc_level>
Public_Medium

> <Canonical_QSARr>
[O-][N+](=O)C1C=CC(Cl)=CC=1C(F)(F)F

> <InChI_Code_QSARr>
InChI=1S/C7H3ClF3NO2/c8-4-1-2-6(12(13)14)5(3-4)7(9,10)11/h1-3H

> <InChI Key_QSARr>
CFPIGEXZPWTNOR-UHFFFAOYSA-N

> <Salt_Solvent>


> <Salt_Solvent_ID>
0

> <MPID>
100591

> <Tr_1_Tst_0>
1

> <Ready_Biodeg>
0.0

$$$$
Row572
  Mrv171c012251911052D          

 10 10  0  0  0  0            999 V2000
    0.4728   -0.0885    0.0000 O   0  0  0  0  0  0  0  0  0  0  0  0
    0.4728   -0.9135    0.0000 C   0  0  0  0  0  0  0  0  0  0  0  0
    1.1873   -1.3260    0.0000 C   0  0  0  0  0  0  0  0  0  0  0  0
    1.1873   -2.1510    0.0000 C   0  0  0  0  0  0  0  0  0  0  0  0
    1.9018   -2.5635    0.0000 C   0  0  0  0  0  0  0  0  0  0  0  0
    2.6162   -2.1510    0.0000 C   0  0  0  0  0  0  0  0  0  0  0  0
    2.6162   -1.3260    0.0000 C   0  0  0  0  0  0  0  0  0  0  0  0
    1.9018   -0.9135    0.0000 C   0  0  0  0  0  0  0  0  0  0  0  0
    1.9018   -0.0885    0.0000 C   0  0  0  0  0  0  0  0  0  0  0  0
   -0.2416   -1.3260    0.0000 O   0  0  0  0  0  0  0  0  0  0  0  0
  1  2  2  0  0  0  0
  2  3  1  0  0  0  0
  4  3  1  0  0  0  0
  5  4  2  0  0  0  0
  6  5  1  0  0  0  0
  7  6  2  0  0  0  0
  8  7  1  0  0  0  0
  3  8  2  0  0  0  0
  8  9  1  0  0  0  0
  2 10  1  0  0  0  0
M  END
> <ChemID>
100582

> <CAS>
118-90-1

> <Original_SMILES>
Cc1ccccc1C(O)=O

> <preferred_name>
2-Methylbenzoic acid

> <dsstox_substance_id>
DTXSID6026161

> <dsstox_compound_id>
DTXCID006161

> <qc_level>
DSSTox_Low

> <Canonical_QSARr>
CC1C=CC=CC=1C(O)=O

> <InChI_Code_QSARr>
InChI=1S/C8H8O2/c1-6-4-2-3-5-7(6)8(9)10/h2-5H,1H3,(H,9,10)

> <InChI Key_QSARr>
ZWLPBLYKEWSWPD-UHFFFAOYSA-N

> <Salt_Solvent>


> <Salt_Solvent_ID>
0

> <MPID>
100592

> <Tr_1_Tst_0>
0

> <Ready_Biodeg>
1.0

$$$$
Row573
  Mrv171c012251911052D          

 10 10  0  0  0  0            999 V2000
    2.4124   -0.9130    0.0000 C   0  0  0  0  0  0  0  0  0  0  0  0
    1.6979   -1.3255    0.0000 C   0  0  0  0  0  0  0  0  0  0  0  0
    0.9835   -0.9130    0.0000 C   0  0  0  0  0  0  0  0  0  0  0  0
    0.9835   -0.0880    0.0000 Cl  0  0  0  0  0  0  0  0  0  0  0  0
    0.2690   -1.3255    0.0000 C   0  0  0  0  0  0  0  0  0  0  0  0
    0.2690   -2.1505    0.0000 C   0  0  0  0  0  0  0  0  0  0  0  0
    0.9835   -2.5630    0.0000 C   0  0  0  0  0  0  0  0  0  0  0  0
    1.6979   -2.1505    0.0000 C   0  0  0  0  0  0  0  0  0  0  0  0
    2.4124   -0.0880    0.0000 O   0  0  0  0  0  0  0  0  0  0  0  0
    3.1269   -1.3255    0.0000 O   0  0  0  0  0  0  0  0  0  0  0  0
  1  2  1  0  0  0  0
  3  2  1  0  0  0  0
  3  4  1  0  0  0  0
  5  3  2  0  0  0  0
  6  5  1  0  0  0  0
  7  6  2  0  0  0  0
  8  7  1  0  0  0  0
  2  8  2  0  0  0  0
  1  9  1  0  0  0  0
  1 10  2  0  0  0  0
M  END
> <ChemID>
100583

> <CAS>
118-91-2

> <Original_SMILES>
OC(=O)c1ccccc1Cl

> <preferred_name>
2-Chlorobenzoic acid

> <dsstox_substance_id>
DTXSID4024771

> <dsstox_compound_id>
DTXCID304771

> <qc_level>
DSSTox_High

> <Canonical_QSARr>
OC(=O)C1=CC=CC=C1Cl

> <InChI_Code_QSARr>
InChI=1S/C7H5ClO2/c8-6-4-2-1-3-5(6)7(9)10/h1-4H,(H,9,10)

> <InChI Key_QSARr>
IKCLCGXPQILATA-UHFFFAOYSA-N

> <Salt_Solvent>


> <Salt_Solvent_ID>
0

> <MPID>
100593

> <Tr_1_Tst_0>
1

> <Ready_Biodeg>
0.0

$$$$
Row574
  Mrv171c012251911052D          

 10 10  0  0  0  0            999 V2000
    0.1975   -1.1193    0.0000 N   0  0  0  0  0  0  0  0  0  0  0  0
    0.9120   -1.5318    0.0000 C   0  0  0  0  0  0  0  0  0  0  0  0
    0.9120   -2.3568    0.0000 C   0  0  0  0  0  0  0  0  0  0  0  0
    1.6265   -2.7693    0.0000 C   0  0  0  0  0  0  0  0  0  0  0  0
    2.3409   -2.3568    0.0000 C   0  0  0  0  0  0  0  0  0  0  0  0
    2.3409   -1.5318    0.0000 C   0  0  0  0  0  0  0  0  0  0  0  0
    1.6265   -1.1193    0.0000 C   0  0  0  0  0  0  0  0  0  0  0  0
    1.6265   -0.2943    0.0000 C   0  0  0  0  0  0  0  0  0  0  0  0
    0.9120    0.1182    0.0000 O   0  0  0  0  0  0  0  0  0  0  0  0
    2.3409    0.1182    0.0000 O   0  0  0  0  0  0  0  0  0  0  0  0
  1  2  1  0  0  0  0
  3  2  1  0  0  0  0
  4  3  2  0  0  0  0
  5  4  1  0  0  0  0
  6  5  2  0  0  0  0
  7  6  1  0  0  0  0
  2  7  2  0  0  0  0
  7  8  1  0  0  0  0
  8  9  1  0  0  0  0
  8 10  2  0  0  0  0
M  END
> <ChemID>
100584

> <CAS>
118-92-3

> <Original_SMILES>
Nc1ccccc1C(O)=O

> <preferred_name>
Anthranilic acid

> <dsstox_substance_id>
DTXSID8020094

> <dsstox_compound_id>
DTXCID7094

> <qc_level>
DSSTox_Low

> <Canonical_QSARr>
NC1C=CC=CC=1C(O)=O

> <InChI_Code_QSARr>
InChI=1S/C7H7NO2/c8-6-4-2-1-3-5(6)7(9)10/h1-4H,8H2,(H,9,10)

> <InChI Key_QSARr>
RWZYAGGXGHYGMB-UHFFFAOYSA-N

> <Salt_Solvent>


> <Salt_Solvent_ID>
0

> <MPID>
100594

> <Tr_1_Tst_0>
1

> <Ready_Biodeg>
1.0

$$$$
Row575
  Mrv171c012251911052D          

 11 11  0  0  0  0            999 V2000
    1.6235   -1.9530    0.0000 C   0  0  0  0  0  0  0  0  0  0  0  0
    2.3380   -1.5405    0.0000 C   0  0  0  0  0  0  0  0  0  0  0  0
    2.3380   -0.7155    0.0000 C   0  0  0  0  0  0  0  0  0  0  0  0
    1.6235   -0.3030    0.0000 C   0  0  0  0  0  0  0  0  0  0  0  0
    1.6235    0.5220    0.0000 C   0  0  0  0  0  0  0  0  0  0  0  0
    0.9090   -0.7155    0.0000 C   0  0  0  0  0  0  0  0  0  0  0  0
    0.9090   -1.5405    0.0000 C   0  0  0  0  0  0  0  0  0  0  0  0
    0.1946   -1.9530    0.0000 N   0  3  0  0  0  0  0  0  0  0  0  0
    0.1946   -2.7780    0.0000 O   0  0  0  0  0  0  0  0  0  0  0  0
   -0.5199   -1.5405    0.0000 O   0  5  0  0  0  0  0  0  0  0  0  0
    1.6235   -2.7780    0.0000 O   0  0  0  0  0  0  0  0  0  0  0  0
  2  1  1  0  0  0  0
  3  2  2  0  0  0  0
  4  3  1  0  0  0  0
  4  5  1  0  0  0  0
  6  4  2  0  0  0  0
  7  6  1  0  0  0  0
  1  7  2  0  0  0  0
  7  8  1  0  0  0  0
  8  9  2  0  0  0  0
  8 10  1  0  0  0  0
  1 11  1  0  0  0  0
M  CHG  2   8   1  10  -1
M  END
> <ChemID>
100585

> <CAS>
119-33-5

> <Original_SMILES>
Cc1cc(c(O)cc1)[N+]([O-])=O

> <preferred_name>
4-Methyl-2-nitrophenol

> <dsstox_substance_id>
DTXSID0026961

> <dsstox_compound_id>
DTXCID606961

> <qc_level>
DSSTox_Low

> <Canonical_QSARr>
CC1=CC(=C(O)C=C1)[N+]([O-])=O

> <InChI_Code_QSARr>
InChI=1S/C7H7NO3/c1-5-2-3-7(9)6(4-5)8(10)11/h2-4,9H,1H3

> <InChI Key_QSARr>
SYDNSSSQVSOXTN-UHFFFAOYSA-N

> <Salt_Solvent>


> <Salt_Solvent_ID>
0

> <MPID>
100595

> <Tr_1_Tst_0>
1

> <Ready_Biodeg>
0.0

$$$$
Row576
  Mrv171c012251911052D          

 25 26  0  0  0  0            999 V2000
    2.8621   -1.6570    0.0000 O   0  0  0  0  0  0  0  0  0  0  0  0
    2.1477   -2.0695    0.0000 C   0  0  0  0  0  0  0  0  0  0  0  0
    1.4332   -1.6570    0.0000 C   0  0  0  0  0  0  0  0  0  0  0  0
    1.4332   -0.8320    0.0000 C   0  0  0  0  0  0  0  0  0  0  0  0
    1.4332   -0.0070    0.0000 C   0  0  0  0  0  0  0  0  0  0  0  0
    0.6082   -0.8320    0.0000 C   0  0  0  0  0  0  0  0  0  0  0  0
    2.2582   -0.8320    0.0000 C   0  0  0  0  0  0  0  0  0  0  0  0
    0.7187   -2.0695    0.0000 C   0  0  0  0  0  0  0  0  0  0  0  0
    0.7187   -2.8945    0.0000 C   0  0  0  0  0  0  0  0  0  0  0  0
    0.0043   -3.3070    0.0000 C   0  0  0  0  0  0  0  0  0  0  0  0
    1.4332   -3.3070    0.0000 C   0  0  0  0  0  0  0  0  0  0  0  0
    2.1477   -2.8945    0.0000 C   0  0  0  0  0  0  0  0  0  0  0  0
    2.8621   -3.3070    0.0000 C   0  0  0  0  0  0  0  0  0  0  0  0
    3.5766   -2.8945    0.0000 C   0  0  0  0  0  0  0  0  0  0  0  0
    4.2911   -3.3070    0.0000 C   0  0  0  0  0  0  0  0  0  0  0  0
    4.2911   -4.1320    0.0000 O   0  0  0  0  0  0  0  0  0  0  0  0
    5.0055   -2.8945    0.0000 C   0  0  0  0  0  0  0  0  0  0  0  0
    5.7200   -3.3070    0.0000 C   0  0  0  0  0  0  0  0  0  0  0  0
    6.4345   -3.7195    0.0000 C   0  0  0  0  0  0  0  0  0  0  0  0
    5.3075   -4.0215    0.0000 C   0  0  0  0  0  0  0  0  0  0  0  0
    6.1325   -2.5926    0.0000 C   0  0  0  0  0  0  0  0  0  0  0  0
    5.0055   -2.0695    0.0000 C   0  0  0  0  0  0  0  0  0  0  0  0
    4.2911   -1.6570    0.0000 C   0  0  0  0  0  0  0  0  0  0  0  0
    4.2911   -0.8320    0.0000 C   0  0  0  0  0  0  0  0  0  0  0  0
    3.5766   -2.0695    0.0000 C   0  0  0  0  0  0  0  0  0  0  0  0
  1  2  1  0  0  0  0
  3  2  1  0  0  0  0
  3  4  1  0  0  0  0
  4  5  1  0  0  0  0
  4  6  1  0  0  0  0
  4  7  1  0  0  0  0
  8  3  2  0  0  0  0
  9  8  1  0  0  0  0
  9 10  1  0  0  0  0
 11  9  2  0  0  0  0
 12 11  1  0  0  0  0
  2 12  2  0  0  0  0
 12 13  1  0  0  0  0
 13 14  1  0  0  0  0
 15 14  1  0  0  0  0
 15 16  1  0  0  0  0
 17 15  2  0  0  0  0
 17 18  1  0  0  0  0
 18 19  1  0  0  0  0
 18 20  1  0  0  0  0
 18 21  1  0  0  0  0
 22 17  1  0  0  0  0
 23 22  2  0  0  0  0
 23 24  1  0  0  0  0
 25 23  1  0  0  0  0
 14 25  2  0  0  0  0
M  END
> <ChemID>
100586

> <CAS>
119-47-1

> <Original_SMILES>
CC(C)(C)c1cc(C)cc(Cc2cc(C)cc(c2O)C(C)(C)C)c1O

> <preferred_name>
2,2'-Methylenebis(4-methyl-6-tert-butylphenol)

> <dsstox_substance_id>
DTXSID4020870

> <dsstox_compound_id>
DTXCID20870

> <qc_level>
DSSTox_Low

> <Canonical_QSARr>
CC(C)(C)C1=CC(C)=CC(CC2=CC(C)=CC(=C2O)C(C)(C)C)=C1O

> <InChI_Code_QSARr>
InChI=1S/C23H32O2/c1-14-9-16(20(24)18(11-14)22(3,4)5)13-17-10-15(2)12-19(21(17)25)23(6,7)8/h9-12,24-25H,13H2,1-8H3

> <InChI Key_QSARr>
KGRVJHAUYBGFFP-UHFFFAOYSA-N

> <Salt_Solvent>


> <Salt_Solvent_ID>
0

> <MPID>
100596

> <Tr_1_Tst_0>
0

> <Ready_Biodeg>
0.0

$$$$
Row577
  Mrv171c012251911052D          

 16 17  0  0  0  0            999 V2000
    3.0769   -4.1475    0.0000 C   0  0  0  0  0  0  0  0  0  0  0  0
    3.0769   -3.3225    0.0000 C   0  0  0  0  0  0  0  0  0  0  0  0
    2.3625   -2.9100    0.0000 C   0  0  0  0  0  0  0  0  0  0  0  0
    2.3625   -2.0850    0.0000 C   0  0  0  0  0  0  0  0  0  0  0  0
    3.0769   -1.6725    0.0000 O   0  0  0  0  0  0  0  0  0  0  0  0
    1.6480   -1.6725    0.0000 C   0  0  0  0  0  0  0  0  0  0  0  0
    0.9335   -2.0850    0.0000 O   0  0  0  0  0  0  0  0  0  0  0  0
    1.6480   -0.8475    0.0000 C   0  0  0  0  0  0  0  0  0  0  0  0
    2.3625   -0.4350    0.0000 C   0  0  0  0  0  0  0  0  0  0  0  0
    2.3625    0.3900    0.0000 C   0  0  0  0  0  0  0  0  0  0  0  0
    1.6480    0.8025    0.0000 C   0  0  0  0  0  0  0  0  0  0  0  0
    0.9335    0.3900    0.0000 C   0  0  0  0  0  0  0  0  0  0  0  0
    0.9335   -0.4350    0.0000 C   0  0  0  0  0  0  0  0  0  0  0  0
    1.6480   -3.3225    0.0000 C   0  0  0  0  0  0  0  0  0  0  0  0
    1.6480   -4.1475    0.0000 C   0  0  0  0  0  0  0  0  0  0  0  0
    2.3625   -4.5600    0.0000 C   0  0  0  0  0  0  0  0  0  0  0  0
  2  1  1  0  0  0  0
  3  2  2  0  0  0  0
  3  4  1  0  0  0  0
  4  5  1  0  0  0  0
  4  6  1  0  0  0  0
  6  7  2  0  0  0  0
  6  8  1  0  0  0  0
  9  8  1  0  0  0  0
 10  9  2  0  0  0  0
 11 10  1  0  0  0  0
 12 11  2  0  0  0  0
 13 12  1  0  0  0  0
  8 13  2  0  0  0  0
 14  3  1  0  0  0  0
 15 14  2  0  0  0  0
 16 15  1  0  0  0  0
  1 16  2  0  0  0  0
M  END
> <ChemID>
100587

> <CAS>
119-53-9

> <Original_SMILES>
OC(C(=O)c1ccccc1)c1ccccc1

> <preferred_name>
Benzoin

> <dsstox_substance_id>
DTXSID1020144

> <dsstox_compound_id>
DTXCID10144

> <qc_level>
DSSTox_Low

> <Canonical_QSARr>
OC(C(=O)C1C=CC=CC=1)C1C=CC=CC=1

> <InChI_Code_QSARr>
InChI=1S/C14H12O2/c15-13(11-7-3-1-4-8-11)14(16)12-9-5-2-6-10-12/h1-10,13,15H

> <InChI Key_QSARr>
ISAOCJYIOMOJEB-UHFFFAOYSA-N

> <Salt_Solvent>


> <Salt_Solvent_ID>
0

> <MPID>
100597

> <Tr_1_Tst_0>
1

> <Ready_Biodeg>
1.0

$$$$
Row578
  Mrv171c012251911052D          

 14 15  0  0  0  0            999 V2000
    3.4173   -2.3837    0.0000 C   0  0  0  0  0  0  0  0  0  0  0  0
    2.7029   -1.9712    0.0000 C   0  0  0  0  0  0  0  0  0  0  0  0
    2.7029   -1.1462    0.0000 C   0  0  0  0  0  0  0  0  0  0  0  0
    1.9884   -0.7337    0.0000 C   0  0  0  0  0  0  0  0  0  0  0  0
    1.9884    0.0913    0.0000 C   0  0  0  0  0  0  0  0  0  0  0  0
    1.2739    0.5038    0.0000 C   0  0  0  0  0  0  0  0  0  0  0  0
    0.5595    0.0913    0.0000 C   0  0  0  0  0  0  0  0  0  0  0  0
    0.5595   -0.7337    0.0000 C   0  0  0  0  0  0  0  0  0  0  0  0
    1.2739   -1.1462    0.0000 C   0  0  0  0  0  0  0  0  0  0  0  0
    3.4173   -0.7337    0.0000 O   0  0  0  0  0  0  0  0  0  0  0  0
    1.9884   -2.3837    0.0000 C   0  0  0  0  0  0  0  0  0  0  0  0
    1.9884   -3.2087    0.0000 C   0  0  0  0  0  0  0  0  0  0  0  0
    2.7029   -3.6212    0.0000 C   0  0  0  0  0  0  0  0  0  0  0  0
    3.4173   -3.2087    0.0000 C   0  0  0  0  0  0  0  0  0  0  0  0
  2  1  1  0  0  0  0
  2  3  1  0  0  0  0
  3  4  1  0  0  0  0
  5  4  1  0  0  0  0
  6  5  2  0  0  0  0
  7  6  1  0  0  0  0
  8  7  2  0  0  0  0
  9  8  1  0  0  0  0
  4  9  2  0  0  0  0
  3 10  2  0  0  0  0
 11  2  2  0  0  0  0
 12 11  1  0  0  0  0
 13 12  2  0  0  0  0
 14 13  1  0  0  0  0
  1 14  2  0  0  0  0
M  END
> <ChemID>
100588

> <CAS>
119-61-9

> <Original_SMILES>
O=C(c1ccccc1)c1ccccc1

> <preferred_name>
Benzophenone

> <dsstox_substance_id>
DTXSID0021961

> <dsstox_compound_id>
DTXCID101961

> <qc_level>
DSSTox_Low

> <Canonical_QSARr>
O=C(C1C=CC=CC=1)C1C=CC=CC=1

> <InChI_Code_QSARr>
InChI=1S/C13H10O/c14-13(11-7-3-1-4-8-11)12-9-5-2-6-10-12/h1-10H

> <InChI Key_QSARr>
RWCCWEUUXYIKHB-UHFFFAOYSA-N

> <Salt_Solvent>


> <Salt_Solvent_ID>
0

> <MPID>
100598

> <Tr_1_Tst_0>
1

> <Ready_Biodeg>
0.0

$$$$
Row579
  Mrv171c012251911052D          

 10 11  0  0  0  0            999 V2000
    1.4297   -0.4125    0.0000 C   0  0  0  0  0  0  0  0  0  0  0  0
    0.7153    0.0000    0.0000 C   0  0  0  0  0  0  0  0  0  0  0  0
    0.0008   -0.4125    0.0000 C   0  0  0  0  0  0  0  0  0  0  0  0
    0.0008   -1.2375    0.0000 C   0  0  0  0  0  0  0  0  0  0  0  0
    0.7153   -1.6500    0.0000 C   0  0  0  0  0  0  0  0  0  0  0  0
    1.4297   -1.2375    0.0000 C   0  0  0  0  0  0  0  0  0  0  0  0
    2.1442   -1.6500    0.0000 C   0  0  0  0  0  0  0  0  0  0  0  0
    2.8587   -1.2375    0.0000 C   0  0  0  0  0  0  0  0  0  0  0  0
    2.8587   -0.4125    0.0000 C   0  0  0  0  0  0  0  0  0  0  0  0
    2.1442    0.0000    0.0000 C   0  0  0  0  0  0  0  0  0  0  0  0
  2  1  1  0  0  0  0
  3  2  2  0  0  0  0
  4  3  1  0  0  0  0
  5  4  2  0  0  0  0
  6  5  1  0  0  0  0
  6  1  2  0  0  0  0
  7  6  1  0  0  0  0
  8  7  1  0  0  0  0
  9  8  1  0  0  0  0
 10  9  1  0  0  0  0
  1 10  1  0  0  0  0
M  END
> <ChemID>
100589

> <CAS>
119-64-2

> <Original_SMILES>
C1CCCc2ccccc21

> <preferred_name>
Tetralin

> <dsstox_substance_id>
DTXSID1026118

> <dsstox_compound_id>
DTXCID306118

> <qc_level>
DSSTox_Low

> <Canonical_QSARr>
C1CCCC2C=CC=CC=21

> <InChI_Code_QSARr>
InChI=1S/C10H12/c1-2-6-10-8-4-3-7-9(10)5-1/h1-2,5-6H,3-4,7-8H2

> <InChI Key_QSARr>
CXWXQJXEFPUFDZ-UHFFFAOYSA-N

> <Salt_Solvent>


> <Salt_Solvent_ID>
0

> <MPID>
100599

> <Tr_1_Tst_0>
1

> <Ready_Biodeg>
0.0

$$$$
Row580
  Mrv171c012251911052D          

 11 11  0  0  0  0            999 V2000
    0.0649    2.2125    0.0000 O   0  0  0  0  0  0  0  0  0  0  0  0
    0.0649    1.3875    0.0000 C   0  0  0  0  0  0  0  0  0  0  0  0
    0.7794    0.9750    0.0000 C   0  0  0  0  0  0  0  0  0  0  0  0
    0.7794    0.1500    0.0000 C   0  0  0  0  0  0  0  0  0  0  0  0
    1.4939   -0.2625    0.0000 C   0  0  0  0  0  0  0  0  0  0  0  0
    2.2084    0.1500    0.0000 C   0  0  0  0  0  0  0  0  0  0  0  0
    2.2084    0.9750    0.0000 C   0  0  0  0  0  0  0  0  0  0  0  0
    1.4939    1.3875    0.0000 C   0  0  0  0  0  0  0  0  0  0  0  0
    1.4939    2.2125    0.0000 N   0  0  0  0  0  0  0  0  0  0  0  0
    0.7794    2.6250    0.0000 C   0  0  0  0  0  0  0  0  0  0  0  0
   -0.6495    0.9750    0.0000 O   0  0  0  0  0  0  0  0  0  0  0  0
  1  2  2  0  0  0  0
  2  3  1  0  0  0  0
  4  3  1  0  0  0  0
  5  4  2  0  0  0  0
  6  5  1  0  0  0  0
  7  6  2  0  0  0  0
  8  7  1  0  0  0  0
  3  8  2  0  0  0  0
  8  9  1  0  0  0  0
  9 10  1  0  0  0  0
  2 11  1  0  0  0  0
M  END
> <ChemID>
100590

> <CAS>
119-68-6

> <Original_SMILES>
CNc1ccccc1C(O)=O

> <preferred_name>
Benzoic acid, 2-(methylamino)-

> <dsstox_substance_id>
DTXSID6059491

> <dsstox_compound_id>
DTXCID0033469

> <qc_level>
Public_High

> <Canonical_QSARr>
CNC1C=CC=CC=1C(O)=O

> <InChI_Code_QSARr>
InChI=1S/C8H9NO2/c1-9-7-5-3-2-4-6(7)8(10)11/h2-5,9H,1H3,(H,10,11)

> <InChI Key_QSARr>
WVMBPWMAQDVZCM-UHFFFAOYSA-N

> <Salt_Solvent>


> <Salt_Solvent_ID>
0

> <MPID>
100600

> <Tr_1_Tst_0>
0

> <Ready_Biodeg>
1.0

$$$$
Row581
  Mrv171c012251911052D          

 18 19  0  0  0  0            999 V2000
    3.9981   -3.1729    0.0000 O   0  0  0  0  0  0  0  0  0  0  0  0
    3.9981   -3.9979    0.0000 C   0  0  0  0  0  0  0  0  0  0  0  0
    3.2837   -2.7604    0.0000 C   0  0  0  0  0  0  0  0  0  0  0  0
    3.2837   -1.9354    0.0000 C   0  0  0  0  0  0  0  0  0  0  0  0
    2.5692   -1.5229    0.0000 C   0  0  0  0  0  0  0  0  0  0  0  0
    2.5692   -0.6979    0.0000 C   0  0  0  0  0  0  0  0  0  0  0  0
    3.2837   -0.2854    0.0000 C   0  0  0  0  0  0  0  0  0  0  0  0
    3.2837    0.5396    0.0000 C   0  0  0  0  0  0  0  0  0  0  0  0
    3.9981    0.9521    0.0000 O   0  0  0  0  0  0  0  0  0  0  0  0
    3.9981    1.7771    0.0000 C   0  0  0  0  0  0  0  0  0  0  0  0
    2.5692    0.9521    0.0000 C   0  0  0  0  0  0  0  0  0  0  0  0
    2.5692    1.7771    0.0000 N   0  0  0  0  0  0  0  0  0  0  0  0
    1.8547    0.5396    0.0000 C   0  0  0  0  0  0  0  0  0  0  0  0
    1.8547   -0.2854    0.0000 C   0  0  0  0  0  0  0  0  0  0  0  0
    1.8547   -1.9354    0.0000 C   0  0  0  0  0  0  0  0  0  0  0  0
    1.8547   -2.7604    0.0000 C   0  0  0  0  0  0  0  0  0  0  0  0
    2.5692   -3.1729    0.0000 C   0  0  0  0  0  0  0  0  0  0  0  0
    2.5692   -3.9979    0.0000 N   0  0  0  0  0  0  0  0  0  0  0  0
  1  2  1  0  0  0  0
  1  3  1  0  0  0  0
  4  3  1  0  0  0  0
  5  4  2  0  0  0  0
  5  6  1  0  0  0  0
  7  6  1  0  0  0  0
  8  7  2  0  0  0  0
  8  9  1  0  0  0  0
  9 10  1  0  0  0  0
 11  8  1  0  0  0  0
 11 12  1  0  0  0  0
 13 11  2  0  0  0  0
 14 13  1  0  0  0  0
  6 14  2  0  0  0  0
 15  5  1  0  0  0  0
 16 15  2  0  0  0  0
 17 16  1  0  0  0  0
  3 17  2  0  0  0  0
 17 18  1  0  0  0  0
M  END
> <ChemID>
100591

> <CAS>
119-90-4

> <Original_SMILES>
COc1cc(ccc1N)-c1cc(OC)c(N)cc1

> <preferred_name>
3,3'-Dimethoxybenzidine

> <dsstox_substance_id>
DTXSID3025091

> <dsstox_compound_id>
DTXCID605091

> <qc_level>
DSSTox_Low

> <Canonical_QSARr>
COC1C=C(C=CC=1N)C1C=C(OC)C(N)=CC=1

> <InChI_Code_QSARr>
InChI=1S/C14H16N2O2/c1-17-13-7-9(3-5-11(13)15)10-4-6-12(16)14(8-10)18-2/h3-8H,15-16H2,1-2H3

> <InChI Key_QSARr>
JRBJSXQPQWSCCF-UHFFFAOYSA-N

> <Salt_Solvent>


> <Salt_Solvent_ID>
0

> <MPID>
100601

> <Tr_1_Tst_0>
1

> <Ready_Biodeg>
0.0

$$$$
Row582
  Mrv171c012251911052D          

 16 17  0  0  0  0            999 V2000
    2.4884   -1.0382    0.0000 C   0  0  0  0  0  0  0  0  0  0  0  0
    3.2029   -0.6257    0.0000 C   0  0  0  0  0  0  0  0  0  0  0  0
    3.2029    0.1993    0.0000 C   0  0  0  0  0  0  0  0  0  0  0  0
    2.4884    0.6118    0.0000 C   0  0  0  0  0  0  0  0  0  0  0  0
    2.4884    1.4368    0.0000 N   0  0  0  0  0  0  0  0  0  0  0  0
    1.7740    0.1993    0.0000 C   0  0  0  0  0  0  0  0  0  0  0  0
    1.0595    0.6118    0.0000 C   0  0  0  0  0  0  0  0  0  0  0  0
    1.7740   -0.6257    0.0000 C   0  0  0  0  0  0  0  0  0  0  0  0
    2.4884   -1.8632    0.0000 C   0  0  0  0  0  0  0  0  0  0  0  0
    1.7740   -2.2757    0.0000 C   0  0  0  0  0  0  0  0  0  0  0  0
    1.7740   -3.1007    0.0000 C   0  0  0  0  0  0  0  0  0  0  0  0
    2.4884   -3.5132    0.0000 C   0  0  0  0  0  0  0  0  0  0  0  0
    2.4884   -4.3382    0.0000 N   0  0  0  0  0  0  0  0  0  0  0  0
    3.2029   -3.1007    0.0000 C   0  0  0  0  0  0  0  0  0  0  0  0
    3.9174   -3.5132    0.0000 C   0  0  0  0  0  0  0  0  0  0  0  0
    3.2029   -2.2757    0.0000 C   0  0  0  0  0  0  0  0  0  0  0  0
  2  1  2  0  0  0  0
  3  2  1  0  0  0  0
  4  3  2  0  0  0  0
  4  5  1  0  0  0  0
  6  4  1  0  0  0  0
  6  7  1  0  0  0  0
  8  6  2  0  0  0  0
  1  8  1  0  0  0  0
  1  9  1  0  0  0  0
 10  9  2  0  0  0  0
 11 10  1  0  0  0  0
 12 11  2  0  0  0  0
 12 13  1  0  0  0  0
 14 12  1  0  0  0  0
 14 15  1  0  0  0  0
 16 14  2  0  0  0  0
  9 16  1  0  0  0  0
M  END
> <ChemID>
100592

> <CAS>
119-93-7

> <Original_SMILES>
Cc1cc(ccc1N)-c1cc(C)c(N)cc1

> <preferred_name>
3,3'-Dimethylbenzidine

> <dsstox_substance_id>
DTXSID5024059

> <dsstox_compound_id>
DTXCID504059

> <qc_level>
DSSTox_Low

> <Canonical_QSARr>
CC1=CC(=CC=C1N)C1C=C(C)C(N)=CC=1

> <InChI_Code_QSARr>
InChI=1S/C14H16N2/c1-9-7-11(3-5-13(9)15)12-4-6-14(16)10(2)8-12/h3-8H,15-16H2,1-2H3

> <InChI Key_QSARr>
NUIURNJTPRWVAP-UHFFFAOYSA-N

> <Salt_Solvent>


> <Salt_Solvent_ID>
0

> <MPID>
100602

> <Tr_1_Tst_0>
1

> <Ready_Biodeg>
0.0

$$$$
Row583
  Mrv171c012251911052D          

 14 16  0  0  0  0            999 V2000
    2.1385   -0.0041    0.0000 C   0  0  0  0  0  0  0  0  0  0  0  0
    2.8530   -0.4166    0.0000 C   0  0  0  0  0  0  0  0  0  0  0  0
    3.5675   -0.0041    0.0000 C   0  0  0  0  0  0  0  0  0  0  0  0
    4.2819   -0.4166    0.0000 C   0  0  0  0  0  0  0  0  0  0  0  0
    4.2819   -1.2416    0.0000 C   0  0  0  0  0  0  0  0  0  0  0  0
    3.5675   -1.6541    0.0000 C   0  0  0  0  0  0  0  0  0  0  0  0
    2.8530   -1.2416    0.0000 C   0  0  0  0  0  0  0  0  0  0  0  0
    2.1385   -1.6541    0.0000 C   0  0  0  0  0  0  0  0  0  0  0  0
    1.4240   -1.2416    0.0000 C   0  0  0  0  0  0  0  0  0  0  0  0
    0.7096   -1.6541    0.0000 C   0  0  0  0  0  0  0  0  0  0  0  0
   -0.0049   -1.2416    0.0000 C   0  0  0  0  0  0  0  0  0  0  0  0
   -0.0049   -0.4166    0.0000 C   0  0  0  0  0  0  0  0  0  0  0  0
    0.7096   -0.0041    0.0000 C   0  0  0  0  0  0  0  0  0  0  0  0
    1.4240   -0.4166    0.0000 C   0  0  0  0  0  0  0  0  0  0  0  0
  2  1  2  0  0  0  0
  2  3  1  0  0  0  0
  3  4  2  0  0  0  0
  4  5  1  0  0  0  0
  5  6  2  0  0  0  0
  6  7  1  0  0  0  0
  7  2  1  0  0  0  0
  8  7  2  0  0  0  0
  9  8  1  0  0  0  0
  9 10  1  0  0  0  0
 10 11  2  0  0  0  0
 11 12  1  0  0  0  0
 12 13  2  0  0  0  0
 13 14  1  0  0  0  0
  1 14  1  0  0  0  0
 14  9  2  0  0  0  0
M  END
> <ChemID>
100594

> <CAS>
120-12-7

> <Original_SMILES>
c1c2ccccc2cc2ccccc21

> <preferred_name>
Anthracene

> <dsstox_substance_id>
DTXSID0023878

> <dsstox_compound_id>
DTXCID203878

> <qc_level>
DSSTox_Low

> <Canonical_QSARr>
C1=C2C=CC=CC2=CC2C=CC=CC=21

> <InChI_Code_QSARr>
InChI=1S/C14H10/c1-2-6-12-10-14-8-4-3-7-13(14)9-11(12)5-1/h1-10H

> <InChI Key_QSARr>
MWPLVEDNUUSJAV-UHFFFAOYSA-N

> <Salt_Solvent>


> <Salt_Solvent_ID>
0

> <MPID>
100603

> <Tr_1_Tst_0>
1

> <Ready_Biodeg>
0.0

$$$$
Row584
  Mrv171c012251911052D          

 15 16  0  0  0  0            999 V2000
    2.6675   -2.8051    0.0000 O   0  0  0  0  0  0  0  0  0  0  0  0
    2.6675   -1.9801    0.0000 C   0  0  0  0  0  0  0  0  0  0  0  0
    3.3820   -1.5676    0.0000 C   0  0  0  0  0  0  0  0  0  0  0  0
    3.3820   -0.7426    0.0000 C   0  0  0  0  0  0  0  0  0  0  0  0
    2.6675   -0.3301    0.0000 C   0  0  0  0  0  0  0  0  0  0  0  0
    2.6675    0.4949    0.0000 Cl  0  0  0  0  0  0  0  0  0  0  0  0
    1.9530   -0.7426    0.0000 C   0  0  0  0  0  0  0  0  0  0  0  0
    1.9530   -1.5676    0.0000 C   0  0  0  0  0  0  0  0  0  0  0  0
    1.2386   -1.9801    0.0000 C   0  0  0  0  0  0  0  0  0  0  0  0
    1.2386   -2.8051    0.0000 C   0  0  0  0  0  0  0  0  0  0  0  0
    0.5241   -3.2176    0.0000 C   0  0  0  0  0  0  0  0  0  0  0  0
    0.5241   -4.0426    0.0000 C   0  0  0  0  0  0  0  0  0  0  0  0
    1.2386   -4.4551    0.0000 C   0  0  0  0  0  0  0  0  0  0  0  0
    1.9530   -4.0426    0.0000 C   0  0  0  0  0  0  0  0  0  0  0  0
    1.9530   -3.2176    0.0000 C   0  0  0  0  0  0  0  0  0  0  0  0
  1  2  1  0  0  0  0
  3  2  1  0  0  0  0
  4  3  2  0  0  0  0
  5  4  1  0  0  0  0
  5  6  1  0  0  0  0
  7  5  2  0  0  0  0
  8  7  1  0  0  0  0
  2  8  2  0  0  0  0
  8  9  1  0  0  0  0
  9 10  1  0  0  0  0
 11 10  1  0  0  0  0
 12 11  2  0  0  0  0
 13 12  1  0  0  0  0
 14 13  2  0  0  0  0
 15 14  1  0  0  0  0
 10 15  2  0  0  0  0
M  END
> <ChemID>
100595

> <CAS>
120-32-1

> <Original_SMILES>
Oc1ccc(Cl)cc1Cc1ccccc1

> <preferred_name>
Clorophene

> <dsstox_substance_id>
DTXSID5020154

> <dsstox_compound_id>
DTXCID30154

> <qc_level>
DSSTox_High

> <Canonical_QSARr>
OC1C=CC(Cl)=CC=1CC1C=CC=CC=1

> <InChI_Code_QSARr>
InChI=1S/C13H11ClO/c14-12-6-7-13(15)11(9-12)8-10-4-2-1-3-5-10/h1-7,9,15H,8H2

> <InChI Key_QSARr>
NCKMMSIFQUPKCK-UHFFFAOYSA-N

> <Salt_Solvent>


> <Salt_Solvent_ID>
0

> <MPID>
100604

> <Tr_1_Tst_0>
0

> <Ready_Biodeg>
1.0

$$$$
Row585
  Mrv171c012251911052D          

 20 19  0  0  0  0            999 V2000
    7.0479   -0.5830    0.0000 O   0  0  0  0  0  0  0  0  0  0  0  0
    7.1762   -1.3979    0.0000 C   0  0  0  0  0  0  0  0  0  0  0  0
    6.5346   -1.9166    0.0000 C   0  0  0  0  0  0  0  0  0  0  0  0
    5.7646   -1.6202    0.0000 C   0  0  0  0  0  0  0  0  0  0  0  0
    5.1230   -2.1388    0.0000 C   0  0  0  0  0  0  0  0  0  0  0  0
    4.3531   -1.8425    0.0000 C   0  0  0  0  0  0  0  0  0  0  0  0
    3.7115   -2.3611    0.0000 C   0  0  0  0  0  0  0  0  0  0  0  0
    2.9415   -2.0647    0.0000 C   0  0  0  0  0  0  0  0  0  0  0  0
    2.2999   -2.5833    0.0000 C   0  0  0  0  0  0  0  0  0  0  0  0
    1.5300   -2.2870    0.0000 C   0  0  0  0  0  0  0  0  0  0  0  0
    0.8884   -2.8056    0.0000 C   0  0  0  0  0  0  0  0  0  0  0  0
    0.1184   -2.5093    0.0000 C   0  0  0  0  0  0  0  0  0  0  0  0
   -0.5232   -3.0279    0.0000 C   0  0  0  0  0  0  0  0  0  0  0  0
    7.9461   -1.6943    0.0000 N   0  0  0  0  0  0  0  0  0  0  0  0
    8.5877   -1.1757    0.0000 C   0  0  0  0  0  0  0  0  0  0  0  0
    9.3577   -1.4720    0.0000 C   0  0  0  0  0  0  0  0  0  0  0  0
    9.9993   -0.9534    0.0000 O   0  0  0  0  0  0  0  0  0  0  0  0
    8.0744   -2.5093    0.0000 C   0  0  0  0  0  0  0  0  0  0  0  0
    8.8444   -2.8056    0.0000 C   0  0  0  0  0  0  0  0  0  0  0  0
    8.9727   -3.6206    0.0000 O   0  0  0  0  0  0  0  0  0  0  0  0
  1  2  2  0  0  0  0
  2  3  1  0  0  0  0
  3  4  1  0  0  0  0
  4  5  1  0  0  0  0
  5  6  1  0  0  0  0
  6  7  1  0  0  0  0
  7  8  1  0  0  0  0
  8  9  1  0  0  0  0
  9 10  1  0  0  0  0
 10 11  1  0  0  0  0
 11 12  1  0  0  0  0
 12 13  1  0  0  0  0
  2 14  1  0  0  0  0
 14 15  1  0  0  0  0
 15 16  1  0  0  0  0
 16 17  1  0  0  0  0
 14 18  1  0  0  0  0
 18 19  1  0  0  0  0
 19 20  1  0  0  0  0
M  END
> <ChemID>
100596

> <CAS>
120-40-1

> <Original_SMILES>
CCCCCCCCCCCC(=O)N(CCO)CCO

> <preferred_name>
N,N-Bis(2-hydroxyethyl)dodecanamide

> <dsstox_substance_id>
DTXSID5025491

> <dsstox_compound_id>
DTXCID405491

> <qc_level>
DSSTox_Low

> <Canonical_QSARr>
CCCCCCCCCCCC(=O)N(CCO)CCO

> <InChI_Code_QSARr>
InChI=1S/C16H33NO3/c1-2-3-4-5-6-7-8-9-10-11-16(20)17(12-14-18)13-15-19/h18-19H,2-15H2,1H3

> <InChI Key_QSARr>
AOMUHOFOVNGZAN-UHFFFAOYSA-N

> <Salt_Solvent>


> <Salt_Solvent_ID>
0

> <MPID>
100605

> <Tr_1_Tst_0>
1

> <Ready_Biodeg>
1.0

$$$$
Row586
  Mrv171c012251911052D          

 17 18  0  0  0  0            999 V2000
    2.2307   -0.0505    0.0000 C   0  0  0  0  0  0  0  0  0  0  0  0
    2.9452   -0.4630    0.0000 C   0  0  0  0  0  0  0  0  0  0  0  0
    3.6597   -0.0505    0.0000 O   0  0  0  0  0  0  0  0  0  0  0  0
    2.9452   -1.2880    0.0000 C   0  0  0  0  0  0  0  0  0  0  0  0
    3.6597   -1.7005    0.0000 C   0  0  0  0  0  0  0  0  0  0  0  0
    3.6597   -2.5255    0.0000 C   0  0  0  0  0  0  0  0  0  0  0  0
    2.9452   -2.9380    0.0000 C   0  0  0  0  0  0  0  0  0  0  0  0
    2.9452   -3.7630    0.0000 C   0  0  0  0  0  0  0  0  0  0  0  0
    3.6597   -4.1755    0.0000 C   0  0  0  0  0  0  0  0  0  0  0  0
    4.3741   -3.7630    0.0000 C   0  0  0  0  0  0  0  0  0  0  0  0
    4.3741   -2.9380    0.0000 C   0  0  0  0  0  0  0  0  0  0  0  0
    4.3741   -1.2880    0.0000 O   0  0  0  0  0  0  0  0  0  0  0  0
    2.2307    0.7745    0.0000 C   0  0  0  0  0  0  0  0  0  0  0  0
    1.5163    1.1870    0.0000 C   0  0  0  0  0  0  0  0  0  0  0  0
    0.8018    0.7745    0.0000 C   0  0  0  0  0  0  0  0  0  0  0  0
    0.8018   -0.0505    0.0000 C   0  0  0  0  0  0  0  0  0  0  0  0
    1.5163   -0.4630    0.0000 C   0  0  0  0  0  0  0  0  0  0  0  0
  1  2  1  0  0  0  0
  2  3  2  0  0  0  0
  2  4  1  0  0  0  0
  4  5  1  0  0  0  0
  5  6  1  0  0  0  0
  7  6  2  0  0  0  0
  8  7  1  0  0  0  0
  9  8  2  0  0  0  0
 10  9  1  0  0  0  0
 11 10  2  0  0  0  0
  6 11  1  0  0  0  0
  5 12  2  0  0  0  0
 13  1  2  0  0  0  0
 14 13  1  0  0  0  0
 15 14  2  0  0  0  0
 16 15  1  0  0  0  0
 17 16  2  0  0  0  0
  1 17  1  0  0  0  0
M  END
> <ChemID>
100597

> <CAS>
120-46-7

> <Original_SMILES>
O=C(CC(=O)c1ccccc1)c1ccccc1

> <preferred_name>
1,3-Diphenyl-1,3-propanedione

> <dsstox_substance_id>
DTXSID3041247

> <dsstox_compound_id>
DTXCID1021247

> <qc_level>
DSSTox_Low

> <Canonical_QSARr>
O=C(CC(=O)C1C=CC=CC=1)C1C=CC=CC=1

> <InChI_Code_QSARr>
InChI=1S/C15H12O2/c16-14(12-7-3-1-4-8-12)11-15(17)13-9-5-2-6-10-13/h1-10H,11H2

> <InChI Key_QSARr>
NZZIMKJIVMHWJC-UHFFFAOYSA-N

> <Salt_Solvent>


> <Salt_Solvent_ID>
0

> <MPID>
100606

> <Tr_1_Tst_0>
1

> <Ready_Biodeg>
1.0

$$$$
Row587
  Mrv171c012251911052D          

 12 12  0  0  0  0            999 V2000
    2.6838   -2.0384    0.0000 C   0  0  0  0  0  0  0  0  0  0  0  0
    1.9693   -2.4509    0.0000 O   0  0  0  0  0  0  0  0  0  0  0  0
    1.9693   -3.2759    0.0000 C   0  0  0  0  0  0  0  0  0  0  0  0
    1.2548   -3.6884    0.0000 C   0  0  0  0  0  0  0  0  0  0  0  0
    3.3982   -2.4509    0.0000 O   0  0  0  0  0  0  0  0  0  0  0  0
    2.6838   -1.2134    0.0000 C   0  0  0  0  0  0  0  0  0  0  0  0
    3.3982   -0.8009    0.0000 C   0  0  0  0  0  0  0  0  0  0  0  0
    3.3982    0.0241    0.0000 C   0  0  0  0  0  0  0  0  0  0  0  0
    2.6838    0.4366    0.0000 C   0  0  0  0  0  0  0  0  0  0  0  0
    2.6838    1.2616    0.0000 O   0  0  0  0  0  0  0  0  0  0  0  0
    1.9693    0.0241    0.0000 C   0  0  0  0  0  0  0  0  0  0  0  0
    1.9693   -0.8009    0.0000 C   0  0  0  0  0  0  0  0  0  0  0  0
  1  2  1  0  0  0  0
  2  3  1  0  0  0  0
  3  4  1  0  0  0  0
  1  5  2  0  0  0  0
  1  6  1  0  0  0  0
  7  6  1  0  0  0  0
  8  7  2  0  0  0  0
  9  8  1  0  0  0  0
  9 10  1  0  0  0  0
 11  9  2  0  0  0  0
 12 11  1  0  0  0  0
  6 12  2  0  0  0  0
M  END
> <ChemID>
100598

> <CAS>
120-47-8

> <Original_SMILES>
CCOC(=O)c1ccc(O)cc1

> <preferred_name>
Ethylparaben

> <dsstox_substance_id>
DTXSID9022528

> <dsstox_compound_id>
DTXCID002528

> <qc_level>
DSSTox_Low

> <Canonical_QSARr>
CCOC(=O)C1C=CC(O)=CC=1

> <InChI_Code_QSARr>
InChI=1S/C9H10O3/c1-2-12-9(11)7-3-5-8(10)6-4-7/h3-6,10H,2H2,1H3

> <InChI Key_QSARr>
NUVBSKCKDOMJSU-UHFFFAOYSA-N

> <Salt_Solvent>


> <Salt_Solvent_ID>
0

> <MPID>
100607

> <Tr_1_Tst_0>
1

> <Ready_Biodeg>
1.0

$$$$
Row588
  Mrv171c012251911052D          

 26 28  0  0  0  0            999 V2000
   -1.4289   -2.4750    0.0000 O   0  0  0  0  0  0  0  0  0  0  0  0
   -1.4289   -1.6500    0.0000 C   0  0  0  0  0  0  0  0  0  0  0  0
   -0.7145   -1.2375    0.0000 O   0  0  0  0  0  0  0  0  0  0  0  0
    0.0000   -1.6500    0.0000 N   0  0  0  0  0  0  0  0  0  0  0  0
    0.0000   -2.4750    0.0000 C   0  0  0  0  0  0  0  0  0  0  0  0
    0.7145   -2.8875    0.0000 C   0  0  0  0  0  0  0  0  0  0  0  0
    0.7145   -3.7125    0.0000 C   0  0  0  0  0  0  0  0  0  0  0  0
    0.0000   -4.1250    0.0000 C   0  0  0  0  0  0  0  0  0  0  0  0
   -0.7145   -3.7125    0.0000 C   0  0  0  0  0  0  0  0  0  0  0  0
   -0.7145   -2.8875    0.0000 C   0  0  0  0  0  0  0  0  0  0  0  0
    0.0000   -4.9500    0.0000 N   0  0  0  0  0  0  0  0  0  0  0  0
    0.7145   -5.3625    0.0000 O   0  0  0  0  0  0  0  0  0  0  0  0
    0.7145   -6.1875    0.0000 C   0  0  0  0  0  0  0  0  0  0  0  0
   -0.0000   -6.6000    0.0000 O   0  0  0  0  0  0  0  0  0  0  0  0
    1.4289   -6.6000    0.0000 C   0  0  0  0  0  0  0  0  0  0  0  0
    2.1434   -6.1875    0.0000 C   0  0  0  0  0  0  0  0  0  0  0  0
    2.8579   -6.6000    0.0000 C   0  0  0  0  0  0  0  0  0  0  0  0
    2.8579   -7.4250    0.0000 C   0  0  0  0  0  0  0  0  0  0  0  0
    2.1434   -7.8375    0.0000 C   0  0  0  0  0  0  0  0  0  0  0  0
    1.4289   -7.4250    0.0000 C   0  0  0  0  0  0  0  0  0  0  0  0
   -2.1434   -1.2375    0.0000 C   0  0  0  0  0  0  0  0  0  0  0  0
   -2.8579   -1.6500    0.0000 C   0  0  0  0  0  0  0  0  0  0  0  0
   -3.5724   -1.2375    0.0000 C   0  0  0  0  0  0  0  0  0  0  0  0
   -3.5724   -0.4125    0.0000 C   0  0  0  0  0  0  0  0  0  0  0  0
   -2.8579    0.0000    0.0000 C   0  0  0  0  0  0  0  0  0  0  0  0
   -2.1434   -0.4125    0.0000 C   0  0  0  0  0  0  0  0  0  0  0  0
  1  2  2  0  0  0  0
  2  3  1  0  0  0  0
  3  4  1  0  0  0  0
  4  5  2  0  0  0  0
  5  6  1  0  0  0  0
  6  7  2  0  0  0  0
  7  8  1  0  0  0  0
  8  9  1  0  0  0  0
  9 10  2  0  0  0  0
  5 10  1  0  0  0  0
  8 11  2  0  0  0  0
 11 12  1  0  0  0  0
 12 13  1  0  0  0  0
 13 14  2  0  0  0  0
 13 15  1  0  0  0  0
 15 16  1  0  0  0  0
 16 17  2  0  0  0  0
 17 18  1  0  0  0  0
 18 19  2  0  0  0  0
 19 20  1  0  0  0  0
 15 20  2  0  0  0  0
  2 21  1  0  0  0  0
 21 22  1  0  0  0  0
 22 23  2  0  0  0  0
 23 24  1  0  0  0  0
 24 25  2  0  0  0  0
 25 26  1  0  0  0  0
 21 26  2  0  0  0  0
M  END
> <ChemID>
100599

> <CAS>
NOCAS_861754

> <Original_SMILES>
O=C(ON=C1C=CC(C=C1)=NOC(=O)c1ccccc1)c1ccccc1

> <preferred_name>


> <dsstox_substance_id>
DTXSID00861754

> <dsstox_compound_id>
DTXCID10810637

> <qc_level>


> <Canonical_QSARr>
O=C(ON=C1C=CC(C=C1)=NOC(=O)C1C=CC=CC=1)C1C=CC=CC=1

> <InChI_Code_QSARr>
InChI=1S/C20H14N2O4/c23-19(15-7-3-1-4-8-15)25-21-17-11-13-18(14-12-17)22-26-20(24)16-9-5-2-6-10-16/h1-14H/b21-17-,22-18+

> <InChI Key_QSARr>
WMVSVUVZSYRWIY-QGFZOGOGSA-N

> <Salt_Solvent>


> <Salt_Solvent_ID>
0

> <MPID>
100608

> <Tr_1_Tst_0>
0

> <Ready_Biodeg>
0.0

$$$$
Row589
  Mrv171c012251911052D          

 11 12  0  0  0  0            999 V2000
    3.8931   -0.3383    0.0000 C   0  0  0  0  0  0  0  0  0  0  0  0
    3.1787   -0.7508    0.0000 C   0  0  0  0  0  0  0  0  0  0  0  0
    2.4642   -0.3383    0.0000 C   0  0  0  0  0  0  0  0  0  0  0  0
    1.7497   -0.7508    0.0000 C   0  0  0  0  0  0  0  0  0  0  0  0
    0.9651   -0.4959    0.0000 O   0  0  0  0  0  0  0  0  0  0  0  0
    0.4802   -1.1633    0.0000 C   0  0  0  0  0  0  0  0  0  0  0  0
    0.9651   -1.8307    0.0000 O   0  0  0  0  0  0  0  0  0  0  0  0
    1.7497   -1.5758    0.0000 C   0  0  0  0  0  0  0  0  0  0  0  0
    2.4642   -1.9883    0.0000 C   0  0  0  0  0  0  0  0  0  0  0  0
    3.1787   -1.5758    0.0000 C   0  0  0  0  0  0  0  0  0  0  0  0
    3.8931    0.4867    0.0000 O   0  0  0  0  0  0  0  0  0  0  0  0
  1  2  1  0  0  0  0
  3  2  1  0  0  0  0
  4  3  2  0  0  0  0
  4  5  1  0  0  0  0
  5  6  1  0  0  0  0
  6  7  1  0  0  0  0
  7  8  1  0  0  0  0
  8  4  1  0  0  0  0
  9  8  2  0  0  0  0
 10  9  1  0  0  0  0
  2 10  2  0  0  0  0
  1 11  2  0  0  0  0
M  END
> <ChemID>
100600

> <CAS>
120-57-0

> <Original_SMILES>
O=Cc1cc2OCOc2cc1

> <preferred_name>
Piperonal

> <dsstox_substance_id>
DTXSID7025924

> <dsstox_compound_id>
DTXCID505924

> <qc_level>
DSSTox_Low

> <Canonical_QSARr>
O=CC1C=C2OCOC2=CC=1

> <InChI_Code_QSARr>
InChI=1S/C8H6O3/c9-4-6-1-2-7-8(3-6)11-5-10-7/h1-4H,5H2

> <InChI Key_QSARr>
SATCULPHIDQDRE-UHFFFAOYSA-N

> <Salt_Solvent>


> <Salt_Solvent_ID>
0

> <MPID>
100609

> <Tr_1_Tst_0>
1

> <Ready_Biodeg>
1.0

$$$$
Row590
  Mrv171c012251911052D          

 14 14  0  0  0  0            999 V2000
    2.7770   -3.4924    0.0000 O   0  0  0  0  0  0  0  0  0  0  0  0
    2.0625   -3.0799    0.0000 C   0  0  0  0  0  0  0  0  0  0  0  0
    1.3481   -3.4924    0.0000 O   0  0  0  0  0  0  0  0  0  0  0  0
    1.3481   -4.3174    0.0000 C   0  0  0  0  0  0  0  0  0  0  0  0
    2.0625   -2.2549    0.0000 C   0  0  0  0  0  0  0  0  0  0  0  0
    2.7770   -1.8424    0.0000 C   0  0  0  0  0  0  0  0  0  0  0  0
    2.7770   -1.0174    0.0000 C   0  0  0  0  0  0  0  0  0  0  0  0
    2.0625   -0.6049    0.0000 C   0  0  0  0  0  0  0  0  0  0  0  0
    2.0625    0.2201    0.0000 C   0  0  0  0  0  0  0  0  0  0  0  0
    2.7770    0.6326    0.0000 O   0  0  0  0  0  0  0  0  0  0  0  0
    2.7770    1.4576    0.0000 C   0  0  0  0  0  0  0  0  0  0  0  0
    1.3481    0.6326    0.0000 O   0  0  0  0  0  0  0  0  0  0  0  0
    1.3481   -1.0174    0.0000 C   0  0  0  0  0  0  0  0  0  0  0  0
    1.3481   -1.8424    0.0000 C   0  0  0  0  0  0  0  0  0  0  0  0
  1  2  2  0  0  0  0
  2  3  1  0  0  0  0
  3  4  1  0  0  0  0
  2  5  1  0  0  0  0
  6  5  1  0  0  0  0
  7  6  2  0  0  0  0
  8  7  1  0  0  0  0
  8  9  1  0  0  0  0
  9 10  1  0  0  0  0
 10 11  1  0  0  0  0
  9 12  2  0  0  0  0
 13  8  2  0  0  0  0
 14 13  1  0  0  0  0
  5 14  2  0  0  0  0
M  END
> <ChemID>
100601

> <CAS>
120-61-6

> <Original_SMILES>
COC(=O)c1ccc(cc1)C(=O)OC

> <preferred_name>
Dimethyl terephthalate

> <dsstox_substance_id>
DTXSID0020498

> <dsstox_compound_id>
DTXCID60498

> <qc_level>
DSSTox_Low

> <Canonical_QSARr>
COC(=O)C1C=CC(=CC=1)C(=O)OC

> <InChI_Code_QSARr>
InChI=1S/C10H10O4/c1-13-9(11)7-3-5-8(6-4-7)10(12)14-2/h3-6H,1-2H3

> <InChI Key_QSARr>
WOZVHXUHUFLZGK-UHFFFAOYSA-N

> <Salt_Solvent>


> <Salt_Solvent_ID>
0

> <MPID>
100610

> <Tr_1_Tst_0>
1

> <Ready_Biodeg>
1.0

$$$$
Row591
  Mrv171c012251911052D          

 10 10  0  0  0  0            999 V2000
    3.1277   -0.8182    0.0000 N   0  0  0  0  0  0  0  0  0  0  0  0
    2.4132   -1.2307    0.0000 C   0  0  0  0  0  0  0  0  0  0  0  0
    1.6987   -0.8182    0.0000 C   0  0  0  0  0  0  0  0  0  0  0  0
    1.6987    0.0068    0.0000 O   0  0  0  0  0  0  0  0  0  0  0  0
    0.9843    0.4193    0.0000 C   0  0  0  0  0  0  0  0  0  0  0  0
    0.9843   -1.2307    0.0000 C   0  0  0  0  0  0  0  0  0  0  0  0
    0.9843   -2.0557    0.0000 C   0  0  0  0  0  0  0  0  0  0  0  0
    1.6987   -2.4682    0.0000 C   0  0  0  0  0  0  0  0  0  0  0  0
    1.6987   -3.2932    0.0000 C   0  0  0  0  0  0  0  0  0  0  0  0
    2.4132   -2.0557    0.0000 C   0  0  0  0  0  0  0  0  0  0  0  0
  1  2  1  0  0  0  0
  3  2  1  0  0  0  0
  3  4  1  0  0  0  0
  4  5  1  0  0  0  0
  6  3  2  0  0  0  0
  7  6  1  0  0  0  0
  8  7  2  0  0  0  0
  8  9  1  0  0  0  0
 10  8  1  0  0  0  0
  2 10  2  0  0  0  0
M  END
> <ChemID>
100602

> <CAS>
120-71-8

> <Original_SMILES>
Cc1ccc(OC)c(N)c1

> <preferred_name>
2-Methoxy-5-methylaniline

> <dsstox_substance_id>
DTXSID1020350

> <dsstox_compound_id>
DTXCID30350

> <qc_level>
DSSTox_Low

> <Canonical_QSARr>
CC1C=C(N)C(=CC=1)OC

> <InChI_Code_QSARr>
InChI=1S/C8H11NO/c1-6-3-4-8(10-2)7(9)5-6/h3-5H,9H2,1-2H3

> <InChI Key_QSARr>
WXWCDTXEKCVRRO-UHFFFAOYSA-N

> <Salt_Solvent>


> <Salt_Solvent_ID>
0

> <MPID>
100611

> <Tr_1_Tst_0>
1

> <Ready_Biodeg>
0.0

$$$$
Row592
  Mrv171c012251911052D          

  9 10  0  0  0  0            999 V2000
    0.3222   -0.1593    0.0000 N   0  0  0  0  0  0  0  0  0  0  0  0
    1.1068   -0.4143    0.0000 C   0  0  0  0  0  0  0  0  0  0  0  0
    1.8213   -0.0018    0.0000 C   0  0  0  0  0  0  0  0  0  0  0  0
    2.5357   -0.4143    0.0000 C   0  0  0  0  0  0  0  0  0  0  0  0
    2.5357   -1.2393    0.0000 C   0  0  0  0  0  0  0  0  0  0  0  0
    1.8213   -1.6518    0.0000 C   0  0  0  0  0  0  0  0  0  0  0  0
    1.1068   -1.2393    0.0000 C   0  0  0  0  0  0  0  0  0  0  0  0
    0.3222   -1.4942    0.0000 C   0  0  0  0  0  0  0  0  0  0  0  0
   -0.1627   -0.8268    0.0000 C   0  0  0  0  0  0  0  0  0  0  0  0
  2  1  1  0  0  0  0
  2  3  1  0  0  0  0
  3  4  2  0  0  0  0
  4  5  1  0  0  0  0
  5  6  2  0  0  0  0
  6  7  1  0  0  0  0
  7  2  2  0  0  0  0
  8  7  1  0  0  0  0
  9  8  2  0  0  0  0
  1  9  1  0  0  0  0
M  END
> <ChemID>
100603

> <CAS>
120-72-9

> <Original_SMILES>
c1cccc2[nH]ccc21

> <preferred_name>
Indole

> <dsstox_substance_id>
DTXSID0020737

> <dsstox_compound_id>
DTXCID40737

> <qc_level>
DSSTox_Low

> <Canonical_QSARr>
C1=CC=CC2NC=CC=21

> <InChI_Code_QSARr>
InChI=1S/C8H7N/c1-2-4-8-7(3-1)5-6-9-8/h1-6,9H

> <InChI Key_QSARr>
SIKJAQJRHWYJAI-UHFFFAOYSA-N

> <Salt_Solvent>


> <Salt_Solvent_ID>
0

> <MPID>
100612

> <Tr_1_Tst_0>
0

> <Ready_Biodeg>
1.0

$$$$
Row593
  Mrv171c012251911052D          

 20 23  0  0  0  0            999 V2000
    2.2120   -2.2065    0.0000 N   0  0  0  0  0  0  0  0  0  0  0  0
    1.4274   -1.9516    0.0000 C   0  0  0  0  0  0  0  0  0  0  0  0
    0.7129   -2.3641    0.0000 C   0  0  0  0  0  0  0  0  0  0  0  0
   -0.0016   -1.9516    0.0000 C   0  0  0  0  0  0  0  0  0  0  0  0
   -0.0016   -1.1266    0.0000 C   0  0  0  0  0  0  0  0  0  0  0  0
    0.7129   -0.7141    0.0000 C   0  0  0  0  0  0  0  0  0  0  0  0
    1.4274   -1.1266    0.0000 C   0  0  0  0  0  0  0  0  0  0  0  0
    2.2120   -0.8716    0.0000 S   0  0  0  0  0  0  0  0  0  0  0  0
    2.6969   -1.5391    0.0000 C   0  0  0  0  0  0  0  0  0  0  0  0
    3.5219   -1.5391    0.0000 S   0  0  0  0  0  0  0  0  0  0  0  0
    3.9344   -0.8246    0.0000 S   0  0  0  0  0  0  0  0  0  0  0  0
    4.7594   -0.8246    0.0000 C   0  0  0  0  0  0  0  0  0  0  0  0
    5.2444   -0.1572    0.0000 S   0  0  0  0  0  0  0  0  0  0  0  0
    6.0290   -0.4121    0.0000 C   0  0  0  0  0  0  0  0  0  0  0  0
    6.7435    0.0004    0.0000 C   0  0  0  0  0  0  0  0  0  0  0  0
    7.4579   -0.4121    0.0000 C   0  0  0  0  0  0  0  0  0  0  0  0
    7.4579   -1.2371    0.0000 C   0  0  0  0  0  0  0  0  0  0  0  0
    6.7435   -1.6496    0.0000 C   0  0  0  0  0  0  0  0  0  0  0  0
    6.0290   -1.2371    0.0000 C   0  0  0  0  0  0  0  0  0  0  0  0
    5.2444   -1.4920    0.0000 N   0  0  0  0  0  0  0  0  0  0  0  0
  2  1  1  0  0  0  0
  2  3  1  0  0  0  0
  3  4  2  0  0  0  0
  4  5  1  0  0  0  0
  5  6  2  0  0  0  0
  6  7  1  0  0  0  0
  7  2  2  0  0  0  0
  8  7  1  0  0  0  0
  9  8  1  0  0  0  0
  1  9  2  0  0  0  0
  9 10  1  0  0  0  0
 10 11  1  0  0  0  0
 11 12  1  0  0  0  0
 13 12  1  0  0  0  0
 14 13  1  0  0  0  0
 14 15  1  0  0  0  0
 15 16  2  0  0  0  0
 16 17  1  0  0  0  0
 17 18  2  0  0  0  0
 18 19  1  0  0  0  0
 19 14  2  0  0  0  0
 20 19  1  0  0  0  0
 12 20  2  0  0  0  0
M  END
> <ChemID>
100604

> <CAS>
120-78-5

> <Original_SMILES>
c1cccc2[s]c([n]c21)SSc1[n]c2ccccc2[s]1

> <preferred_name>
2,2'-Dithiobisbenzothiazole

> <dsstox_substance_id>
DTXSID1020146

> <dsstox_compound_id>
DTXCID70146

> <qc_level>
DSSTox_Low

> <Canonical_QSARr>
C1=CC=CC2SC(=NC=21)SSC1=NC2C=CC=CC=2S1

> <InChI_Code_QSARr>
InChI=1S/C14H8N2S4/c1-3-7-11-9(5-1)15-13(17-11)19-20-14-16-10-6-2-4-8-12(10)18-14/h1-8H

> <InChI Key_QSARr>
AFZSMODLJJCVPP-UHFFFAOYSA-N

> <Salt_Solvent>


> <Salt_Solvent_ID>
0

> <MPID>
100613

> <Tr_1_Tst_0>
1

> <Ready_Biodeg>
0.0

$$$$
Row594
  Mrv171c012251911052D          

  8  8  0  0  0  0            999 V2000
    0.0913   -0.7358    0.0000 O   0  0  0  0  0  0  0  0  0  0  0  0
    0.8057   -1.1483    0.0000 C   0  0  0  0  0  0  0  0  0  0  0  0
    0.8057   -1.9733    0.0000 C   0  0  0  0  0  0  0  0  0  0  0  0
    1.5202   -2.3858    0.0000 C   0  0  0  0  0  0  0  0  0  0  0  0
    2.2347   -1.9733    0.0000 C   0  0  0  0  0  0  0  0  0  0  0  0
    2.2347   -1.1483    0.0000 C   0  0  0  0  0  0  0  0  0  0  0  0
    1.5202   -0.7358    0.0000 C   0  0  0  0  0  0  0  0  0  0  0  0
    1.5202    0.0892    0.0000 O   0  0  0  0  0  0  0  0  0  0  0  0
  1  2  1  0  0  0  0
  3  2  1  0  0  0  0
  4  3  2  0  0  0  0
  5  4  1  0  0  0  0
  6  5  2  0  0  0  0
  7  6  1  0  0  0  0
  2  7  2  0  0  0  0
  7  8  1  0  0  0  0
M  END
> <ChemID>
100605

> <CAS>
120-80-9

> <Original_SMILES>
Oc1ccccc1O

> <preferred_name>
Catechol

> <dsstox_substance_id>
DTXSID3020257

> <dsstox_compound_id>
DTXCID30257

> <qc_level>
DSSTox_Low

> <Canonical_QSARr>
OC1C=CC=CC=1O

> <InChI_Code_QSARr>
InChI=1S/C6H6O2/c7-5-3-1-2-4-6(5)8/h1-4,7-8H

> <InChI Key_QSARr>
YCIMNLLNPGFGHC-UHFFFAOYSA-N

> <Salt_Solvent>


> <Salt_Solvent_ID>
0

> <MPID>
100614

> <Tr_1_Tst_0>
1

> <Ready_Biodeg>
1.0

$$$$
Row595
  Mrv171c012251911052D          

  9  9  0  0  0  0            999 V2000
    1.7473   -2.4749    0.0000 Cl  0  0  0  0  0  0  0  0  0  0  0  0
    1.7473   -1.6499    0.0000 C   0  0  0  0  0  0  0  0  0  0  0  0
    2.4618   -1.2374    0.0000 C   0  0  0  0  0  0  0  0  0  0  0  0
    2.4618   -0.4124    0.0000 C   0  0  0  0  0  0  0  0  0  0  0  0
    1.7473    0.0001    0.0000 C   0  0  0  0  0  0  0  0  0  0  0  0
    1.7473    0.8251    0.0000 Cl  0  0  0  0  0  0  0  0  0  0  0  0
    1.0328   -0.4124    0.0000 C   0  0  0  0  0  0  0  0  0  0  0  0
    1.0328   -1.2374    0.0000 C   0  0  0  0  0  0  0  0  0  0  0  0
    0.3184   -1.6499    0.0000 Cl  0  0  0  0  0  0  0  0  0  0  0  0
  1  2  1  0  0  0  0
  3  2  1  0  0  0  0
  4  3  2  0  0  0  0
  5  4  1  0  0  0  0
  5  6  1  0  0  0  0
  7  5  2  0  0  0  0
  8  7  1  0  0  0  0
  2  8  2  0  0  0  0
  8  9  1  0  0  0  0
M  END
> <ChemID>
100606

> <CAS>
120-82-1

> <Original_SMILES>
Clc1cc(Cl)c(Cl)cc1

> <preferred_name>
1,2,4-Trichlorobenzene

> <dsstox_substance_id>
DTXSID0021965

> <dsstox_compound_id>
DTXCID701965

> <qc_level>
DSSTox_High

> <Canonical_QSARr>
ClC1=CC(Cl)=C(Cl)C=C1

> <InChI_Code_QSARr>
InChI=1S/C6H3Cl3/c7-4-1-2-5(8)6(9)3-4/h1-3H

> <InChI Key_QSARr>
PBKONEOXTCPAFI-UHFFFAOYSA-N

> <Salt_Solvent>


> <Salt_Solvent_ID>
0

> <MPID>
100615

> <Tr_1_Tst_0>
1

> <Ready_Biodeg>
0.0

$$$$
Row596
  Mrv171c012251911052D          

  9  9  0  0  0  0            999 V2000
    2.5410   -1.6499    0.0000 Cl  0  0  0  0  0  0  0  0  0  0  0  0
    1.8265   -1.2374    0.0000 C   0  0  0  0  0  0  0  0  0  0  0  0
    1.8265   -0.4124    0.0000 C   0  0  0  0  0  0  0  0  0  0  0  0
    1.1121    0.0001    0.0000 C   0  0  0  0  0  0  0  0  0  0  0  0
    1.1121    0.8251    0.0000 Cl  0  0  0  0  0  0  0  0  0  0  0  0
    0.3976   -0.4124    0.0000 C   0  0  0  0  0  0  0  0  0  0  0  0
    0.3976   -1.2374    0.0000 C   0  0  0  0  0  0  0  0  0  0  0  0
    1.1121   -1.6499    0.0000 C   0  0  0  0  0  0  0  0  0  0  0  0
    1.1121   -2.4749    0.0000 O   0  0  0  0  0  0  0  0  0  0  0  0
  1  2  1  0  0  0  0
  3  2  1  0  0  0  0
  4  3  2  0  0  0  0
  4  5  1  0  0  0  0
  6  4  1  0  0  0  0
  7  6  2  0  0  0  0
  8  7  1  0  0  0  0
  2  8  2  0  0  0  0
  8  9  1  0  0  0  0
M  END
> <ChemID>
100607

> <CAS>
120-83-2

> <Original_SMILES>
Oc1ccc(Cl)cc1Cl

> <preferred_name>
2,4-Dichlorophenol

> <dsstox_substance_id>
DTXSID1020439

> <dsstox_compound_id>
DTXCID70439

> <qc_level>
DSSTox_Low

> <Canonical_QSARr>
OC1C=CC(Cl)=CC=1Cl

> <InChI_Code_QSARr>
InChI=1S/C6H4Cl2O/c7-4-1-2-6(9)5(8)3-4/h1-3,9H

> <InChI Key_QSARr>
HFZWRUODUSTPEG-UHFFFAOYSA-N

> <Salt_Solvent>


> <Salt_Solvent_ID>
0

> <MPID>
100616

> <Tr_1_Tst_0>
0

> <Ready_Biodeg>
0.0

$$$$
Row597
  Mrv171c012251911052D          

 11 11  0  0  0  0            999 V2000
    2.2716   -1.7245    0.0000 C   0  0  0  0  0  0  0  0  0  0  0  0
    2.9860   -1.3120    0.0000 C   0  0  0  0  0  0  0  0  0  0  0  0
    2.9860   -0.4870    0.0000 C   0  0  0  0  0  0  0  0  0  0  0  0
    2.2716   -0.0745    0.0000 C   0  0  0  0  0  0  0  0  0  0  0  0
    2.2716    0.7505    0.0000 O   0  0  0  0  0  0  0  0  0  0  0  0
    1.5571   -0.4870    0.0000 C   0  0  0  0  0  0  0  0  0  0  0  0
    0.8426   -0.0745    0.0000 O   0  0  0  0  0  0  0  0  0  0  0  0
    0.1281   -0.4870    0.0000 C   0  0  0  0  0  0  0  0  0  0  0  0
    1.5571   -1.3120    0.0000 C   0  0  0  0  0  0  0  0  0  0  0  0
    2.2716   -2.5495    0.0000 C   0  0  0  0  0  0  0  0  0  0  0  0
    2.9860   -2.9620    0.0000 O   0  0  0  0  0  0  0  0  0  0  0  0
  2  1  1  0  0  0  0
  3  2  2  0  0  0  0
  4  3  1  0  0  0  0
  4  5  1  0  0  0  0
  6  4  2  0  0  0  0
  6  7  1  0  0  0  0
  7  8  1  0  0  0  0
  9  6  1  0  0  0  0
  1  9  2  0  0  0  0
  1 10  1  0  0  0  0
 10 11  2  0  0  0  0
M  END
> <ChemID>
100608

> <CAS>
121-33-5

> <Original_SMILES>
COc1cc(C=O)ccc1O

> <preferred_name>
4-Hydroxy-3-methoxybenzaldehyde

> <dsstox_substance_id>
DTXSID0021969

> <dsstox_compound_id>
DTXCID301969

> <qc_level>
DSSTox_Low

> <Canonical_QSARr>
COC1C=C(C=O)C=CC=1O

> <InChI_Code_QSARr>
InChI=1S/C8H8O3/c1-11-8-4-6(5-9)2-3-7(8)10/h2-5,10H,1H3

> <InChI Key_QSARr>
MWOOGOJBHIARFG-UHFFFAOYSA-N

> <Salt_Solvent>


> <Salt_Solvent_ID>
0

> <MPID>
100617

> <Tr_1_Tst_0>
1

> <Ready_Biodeg>
1.0

$$$$
Row598
  Mrv171c012251911052D          

 12 12  0  0  0  0            999 V2000
    2.1434    2.3375    0.0000 C   0  0  0  0  0  0  0  0  0  0  0  0
    2.1434    1.5125    0.0000 O   0  0  0  0  0  0  0  0  0  0  0  0
    1.4289    1.1000    0.0000 C   0  0  0  0  0  0  0  0  0  0  0  0
    0.7145    1.5125    0.0000 C   0  0  0  0  0  0  0  0  0  0  0  0
    0.7145    2.3375    0.0000 O   0  0  0  0  0  0  0  0  0  0  0  0
   -0.0000    1.1000    0.0000 C   0  0  0  0  0  0  0  0  0  0  0  0
   -0.0000    0.2750    0.0000 C   0  0  0  0  0  0  0  0  0  0  0  0
    0.7145   -0.1375    0.0000 C   0  0  0  0  0  0  0  0  0  0  0  0
    0.7145   -0.9625    0.0000 C   0  0  0  0  0  0  0  0  0  0  0  0
    1.4289   -1.3750    0.0000 O   0  0  0  0  0  0  0  0  0  0  0  0
   -0.0000   -1.3750    0.0000 O   0  0  0  0  0  0  0  0  0  0  0  0
    1.4289    0.2750    0.0000 C   0  0  0  0  0  0  0  0  0  0  0  0
  1  2  1  0  0  0  0
  2  3  1  0  0  0  0
  4  3  1  0  0  0  0
  4  5  1  0  0  0  0
  6  4  2  0  0  0  0
  7  6  1  0  0  0  0
  8  7  2  0  0  0  0
  8  9  1  0  0  0  0
  9 10  1  0  0  0  0
  9 11  2  0  0  0  0
 12  8  1  0  0  0  0
  3 12  2  0  0  0  0
M  END
> <ChemID>
100609

> <CAS>
121-34-6

> <Original_SMILES>
COc1cc(ccc1O)C(O)=O

> <preferred_name>
Vanillic acid

> <dsstox_substance_id>
DTXSID6059522

> <dsstox_compound_id>
DTXCID1033668

> <qc_level>
Public_High

> <Canonical_QSARr>
COC1=CC(=CC=C1O)C(O)=O

> <InChI_Code_QSARr>
InChI=1S/C8H8O4/c1-12-7-4-5(8(10)11)2-3-6(7)9/h2-4,9H,1H3,(H,10,11)

> <InChI Key_QSARr>
WKOLLVMJNQIZCI-UHFFFAOYSA-N

> <Salt_Solvent>


> <Salt_Solvent_ID>
0

> <MPID>
100618

> <Tr_1_Tst_0>
1

> <Ready_Biodeg>
1.0

$$$$
Row599
  Mrv171c012251911052D          

  7  6  0  0  0  0            999 V2000
    2.6512   -2.0431    0.0000 C   0  0  0  0  0  0  0  0  0  0  0  0
    2.2387   -1.3286    0.0000 C   0  0  0  0  0  0  0  0  0  0  0  0
    1.4137   -1.3286    0.0000 N   0  0  0  0  0  0  0  0  0  0  0  0
    1.0012   -0.6142    0.0000 C   0  0  0  0  0  0  0  0  0  0  0  0
    0.1762   -0.6142    0.0000 C   0  0  0  0  0  0  0  0  0  0  0  0
    1.0012   -2.0431    0.0000 C   0  0  0  0  0  0  0  0  0  0  0  0
    0.1762   -2.0431    0.0000 C   0  0  0  0  0  0  0  0  0  0  0  0
  1  2  1  0  0  0  0
  2  3  1  0  0  0  0
  3  4  1  0  0  0  0
  4  5  1  0  0  0  0
  3  6  1  0  0  0  0
  6  7  1  0  0  0  0
M  END
> <ChemID>
100610

> <CAS>
121-44-8

> <Original_SMILES>
CCN(CC)CC

> <preferred_name>
Triethylamine

> <dsstox_substance_id>
DTXSID3024366

> <dsstox_compound_id>
DTXCID204366

> <qc_level>
DSSTox_High

> <Canonical_QSARr>
CCN(CC)CC

> <InChI_Code_QSARr>
InChI=1S/C6H15N/c1-4-7(5-2)6-3/h4-6H2,1-3H3

> <InChI Key_QSARr>
ZMANZCXQSJIPKH-UHFFFAOYSA-N

> <Salt_Solvent>


> <Salt_Solvent_ID>
0

> <MPID>
100619

> <Tr_1_Tst_0>
1

> <Ready_Biodeg>
0.0

$$$$
Row600
  Mrv171c012251911052D          

 11 11  0  0  0  0            999 V2000
    3.2471   -2.2880    0.0000 O   0  0  0  0  0  0  0  0  0  0  0  0
    2.5326   -1.8755    0.0000 S   0  0  0  0  0  0  0  0  0  0  0  0
    1.8182   -1.4630    0.0000 C   0  0  0  0  0  0  0  0  0  0  0  0
    1.8182   -0.6380    0.0000 C   0  0  0  0  0  0  0  0  0  0  0  0
    1.1037   -0.2255    0.0000 C   0  0  0  0  0  0  0  0  0  0  0  0
    1.1037    0.5995    0.0000 N   0  0  0  0  0  0  0  0  0  0  0  0
    0.3892   -0.6380    0.0000 C   0  0  0  0  0  0  0  0  0  0  0  0
    0.3892   -1.4630    0.0000 C   0  0  0  0  0  0  0  0  0  0  0  0
    1.1037   -1.8755    0.0000 C   0  0  0  0  0  0  0  0  0  0  0  0
    2.9451   -1.1610    0.0000 O   0  0  0  0  0  0  0  0  0  0  0  0
    2.1201   -2.5899    0.0000 O   0  0  0  0  0  0  0  0  0  0  0  0
  1  2  2  0  0  0  0
  2  3  1  0  0  0  0
  4  3  1  0  0  0  0
  5  4  2  0  0  0  0
  5  6  1  0  0  0  0
  7  5  1  0  0  0  0
  8  7  2  0  0  0  0
  9  8  1  0  0  0  0
  3  9  2  0  0  0  0
  2 10  1  0  0  0  0
  2 11  2  0  0  0  0
M  END
> <ChemID>
100611

> <CAS>
121-47-1

> <Original_SMILES>
Nc1cc(ccc1)S(O)(=O)=O

> <preferred_name>
3-Aminobenzenesulfonic acid

> <dsstox_substance_id>
DTXSID6024462

> <dsstox_compound_id>
DTXCID804462

> <qc_level>
DSSTox_Low

> <Canonical_QSARr>
NC1=CC(=CC=C1)S(O)(=O)=O

> <InChI_Code_QSARr>
InChI=1S/C6H7NO3S/c7-5-2-1-3-6(4-5)11(8,9)10/h1-4H,7H2,(H,8,9,10)

> <InChI Key_QSARr>
ZAJAQTYSTDTMCU-UHFFFAOYSA-N

> <Salt_Solvent>


> <Salt_Solvent_ID>
0

> <MPID>
100620

> <Tr_1_Tst_0>
0

> <Ready_Biodeg>
0.0

$$$$
Row601
  Mrv171c012251911052D          

 13 13  0  0  0  0            999 V2000
    0.8793    0.1904    0.0000 C   0  0  0  0  0  0  0  0  0  0  0  0
    0.1649   -0.2221    0.0000 S   0  0  0  0  0  0  0  0  0  0  0  0
   -0.5496   -0.6346    0.0000 O   0  0  0  0  0  0  0  0  0  0  0  0
    0.5774   -0.9366    0.0000 O   0  0  0  0  0  0  0  0  0  0  0  0
   -0.2476    0.4924    0.0000 O   0  0  0  0  0  0  0  0  0  0  0  0
    1.5938   -0.2221    0.0000 C   0  0  0  0  0  0  0  0  0  0  0  0
    2.3083    0.1904    0.0000 C   0  0  0  0  0  0  0  0  0  0  0  0
    2.3083    1.0154    0.0000 C   0  0  0  0  0  0  0  0  0  0  0  0
    1.5938    1.4279    0.0000 C   0  0  0  0  0  0  0  0  0  0  0  0
    1.5938    2.2529    0.0000 C   0  0  0  0  0  0  0  0  0  0  0  0
    0.8793    2.6654    0.0000 O   0  0  0  0  0  0  0  0  0  0  0  0
    2.3083    2.6654    0.0000 O   0  0  0  0  0  0  0  0  0  0  0  0
    0.8793    1.0154    0.0000 C   0  0  0  0  0  0  0  0  0  0  0  0
  1  2  1  0  0  0  0
  2  3  2  0  0  0  0
  2  4  2  0  0  0  0
  2  5  1  0  0  0  0
  6  1  1  0  0  0  0
  7  6  2  0  0  0  0
  8  7  1  0  0  0  0
  9  8  2  0  0  0  0
  9 10  1  0  0  0  0
 10 11  2  0  0  0  0
 10 12  1  0  0  0  0
 13  9  1  0  0  0  0
  1 13  2  0  0  0  0
M  END
> <ChemID>
100612

> <CAS>
121-53-9

> <Original_SMILES>
OC(=O)c1cc(ccc1)S(O)(=O)=O

> <preferred_name>
3-Sulfobenzoic acid

> <dsstox_substance_id>
DTXSID6059528

> <dsstox_compound_id>
DTXCID5033674

> <qc_level>
DSSTox_High

> <Canonical_QSARr>
OC(=O)C1C=C(C=CC=1)S(O)(=O)=O

> <InChI_Code_QSARr>
InChI=1S/C7H6O5S/c8-7(9)5-2-1-3-6(4-5)13(10,11)12/h1-4H,(H,8,9)(H,10,11,12)

> <InChI Key_QSARr>
QMWGSOMVXSRXQX-UHFFFAOYSA-N

> <Salt_Solvent>


> <Salt_Solvent_ID>
0

> <MPID>
100621

> <Tr_1_Tst_0>
1

> <Ready_Biodeg>
0.0

$$$$
Row602
  Mrv171c001112021182D          

 30 31  0  0  0  0            999 V2000
   -7.1210    0.3438    0.0000 N   0  3  0  0  0  0  0  0  0  0  0  0
   -6.7085   -0.3707    0.0000 C   0  0  0  0  0  0  0  0  0  0  0  0
   -7.5335    1.0582    0.0000 C   0  0  0  0  0  0  0  0  0  0  0  0
   -7.8354   -0.0687    0.0000 C   0  0  0  0  0  0  0  0  0  0  0  0
   -8.5499    0.3438    0.0000 C   0  0  0  0  0  0  0  0  0  0  0  0
   -8.5499    1.1688    0.0000 C   0  0  0  0  0  0  0  0  0  0  0  0
   -9.2644    1.5813    0.0000 C   0  0  0  0  0  0  0  0  0  0  0  0
   -9.9789    1.1688    0.0000 C   0  0  0  0  0  0  0  0  0  0  0  0
   -9.9789    0.3438    0.0000 C   0  0  0  0  0  0  0  0  0  0  0  0
   -9.2644   -0.0687    0.0000 C   0  0  0  0  0  0  0  0  0  0  0  0
   -6.4065    0.7563    0.0000 C   0  0  0  0  0  0  0  0  0  0  0  0
   -5.6920    0.3438    0.0000 C   0  0  0  0  0  0  0  0  0  0  0  0
   -4.9776    0.7563    0.0000 O   0  0  0  0  0  0  0  0  0  0  0  0
   -4.2631    0.3438    0.0000 C   0  0  0  0  0  0  0  0  0  0  0  0
   -3.5486    0.7563    0.0000 C   0  0  0  0  0  0  0  0  0  0  0  0
   -2.8341    0.3438    0.0000 O   0  0  0  0  0  0  0  0  0  0  0  0
   -2.1197    0.7563    0.0000 C   0  0  0  0  0  0  0  0  0  0  0  0
   -1.4052    0.3438    0.0000 C   0  0  0  0  0  0  0  0  0  0  0  0
   -0.6907    0.7563    0.0000 C   0  0  0  0  0  0  0  0  0  0  0  0
   -0.6907    1.5813    0.0000 C   0  0  0  0  0  0  0  0  0  0  0  0
    0.0237    1.9938    0.0000 C   0  0  0  0  0  0  0  0  0  0  0  0
    0.4362    1.2793    0.0000 C   0  0  0  0  0  0  0  0  0  0  0  0
   -0.3888    2.7082    0.0000 C   0  0  0  0  0  0  0  0  0  0  0  0
    0.7382    2.4063    0.0000 C   0  0  0  0  0  0  0  0  0  0  0  0
    1.4527    1.9938    0.0000 C   0  0  0  0  0  0  0  0  0  0  0  0
    2.1672    1.5813    0.0000 C   0  0  0  0  0  0  0  0  0  0  0  0
    1.0402    1.2793    0.0000 C   0  0  0  0  0  0  0  0  0  0  0  0
    1.8652    2.7082    0.0000 C   0  0  0  0  0  0  0  0  0  0  0  0
   -1.4052    1.9938    0.0000 C   0  0  0  0  0  0  0  0  0  0  0  0
   -2.1197    1.5813    0.0000 C   0  0  0  0  0  0  0  0  0  0  0  0
  1  2  1  0  0  0  0
  1  3  1  0  0  0  0
  1  4  1  0  0  0  0
  4  5  1  0  0  0  0
  6  5  1  0  0  0  0
  7  6  2  0  0  0  0
  8  7  1  0  0  0  0
  9  8  2  0  0  0  0
 10  9  1  0  0  0  0
  5 10  2  0  0  0  0
  1 11  1  0  0  0  0
 11 12  1  0  0  0  0
 12 13  1  0  0  0  0
 13 14  1  0  0  0  0
 14 15  1  0  0  0  0
 15 16  1  0  0  0  0
 16 17  1  0  0  0  0
 18 17  1  0  0  0  0
 19 18  2  0  0  0  0
 20 19  1  0  0  0  0
 20 21  1  0  0  0  0
 21 22  1  0  0  0  0
 21 23  1  0  0  0  0
 21 24  1  0  0  0  0
 24 25  1  0  0  0  0
 25 26  1  0  0  0  0
 25 27  1  0  0  0  0
 25 28  1  0  0  0  0
 29 20  2  0  0  0  0
 30 29  1  0  0  0  0
 17 30  2  0  0  0  0
M  CHG  1   1   1
M  END
> <ChemID>
100613

> <CAS>
121-54-0

> <Original_SMILES>
[Cl-].CC(C)(C)CC(C)(C)c1ccc(cc1)OCCOCC[N+](C)(C)Cc1ccccc1

> <preferred_name>
Benzethonium chloride

> <dsstox_substance_id>
DTXSID6023810

> <dsstox_compound_id>
DTXCID203810

> <qc_level>
DSSTox_High

> <Canonical_QSARr>
CC(C)(C)CC(C)(C)C1C=CC(=CC=1)OCCOCC[N+](C)(C)CC1C=CC=CC=1

> <InChI_Code_QSARr>
InChI=1S/C27H42NO2/c1-26(2,3)22-27(4,5)24-13-15-25(16-14-24)30-20-19-29-18-17-28(6,7)21-23-11-9-8-10-12-23/h8-16H,17-22H2,1-7H3/q+1

> <InChI Key_QSARr>
SIYLLGKDQZGJHK-UHFFFAOYSA-N

> <Salt_Solvent>
[Cl-]

> <Salt_Solvent_ID>
170

> <MPID>
100622

> <Tr_1_Tst_0>
1

> <Ready_Biodeg>
0.0

$$$$
Row603
  Mrv171c012251911052D          

 14 14  0  0  0  0            999 V2000
    0.3062   -0.5304    0.0000 C   0  0  0  0  0  0  0  0  0  0  0  0
    0.3062   -1.3554    0.0000 S   0  0  0  0  0  0  0  0  0  0  0  0
    0.3062   -2.1804    0.0000 O   0  0  0  0  0  0  0  0  0  0  0  0
    1.1312   -1.3554    0.0000 O   0  0  0  0  0  0  0  0  0  0  0  0
   -0.5188   -1.3554    0.0000 O   0  0  0  0  0  0  0  0  0  0  0  0
    1.0207   -0.1179    0.0000 C   0  0  0  0  0  0  0  0  0  0  0  0
    1.0207    0.7071    0.0000 C   0  0  0  0  0  0  0  0  0  0  0  0
    0.3062    1.1196    0.0000 C   0  0  0  0  0  0  0  0  0  0  0  0
    0.3062    1.9446    0.0000 N   0  0  0  0  0  0  0  0  0  0  0  0
    1.0207    2.3571    0.0000 C   0  0  0  0  0  0  0  0  0  0  0  0
    1.0207    3.1821    0.0000 O   0  0  0  0  0  0  0  0  0  0  0  0
    1.7351    1.9446    0.0000 C   0  0  0  0  0  0  0  0  0  0  0  0
   -0.4083    0.7071    0.0000 C   0  0  0  0  0  0  0  0  0  0  0  0
   -0.4083   -0.1179    0.0000 C   0  0  0  0  0  0  0  0  0  0  0  0
  1  2  1  0  0  0  0
  2  3  2  0  0  0  0
  2  4  2  0  0  0  0
  2  5  1  0  0  0  0
  6  1  1  0  0  0  0
  7  6  2  0  0  0  0
  8  7  1  0  0  0  0
  8  9  1  0  0  0  0
  9 10  1  0  0  0  0
 10 11  2  0  0  0  0
 10 12  1  0  0  0  0
 13  8  2  0  0  0  0
 14 13  1  0  0  0  0
  1 14  2  0  0  0  0
M  END
> <ChemID>
100614

> <CAS>
121-62-0

> <Original_SMILES>
CC(=O)Nc1ccc(cc1)S(O)(=O)=O

> <preferred_name>
4-(Acetylamino)benzenesulfonic acid

> <dsstox_substance_id>
DTXSID0059530

> <dsstox_compound_id>
DTXCID5033676

> <qc_level>
Public_High

> <Canonical_QSARr>
CC(=O)NC1C=CC(=CC=1)S(O)(=O)=O

> <InChI_Code_QSARr>
InChI=1S/C8H9NO4S/c1-6(10)9-7-2-4-8(5-3-7)14(11,12)13/h2-5H,1H3,(H,9,10)(H,11,12,13)

> <InChI Key_QSARr>
ZQPVMSLLKQTRMG-UHFFFAOYSA-N

> <Salt_Solvent>


> <Salt_Solvent_ID>
0

> <MPID>
100623

> <Tr_1_Tst_0>
1

> <Ready_Biodeg>
0.0

$$$$
Row604
  Mrv171c012251911052D          

  9  9  0  0  0  0            999 V2000
    2.1337    0.7064    0.0000 C   0  0  0  0  0  0  0  0  0  0  0  0
    1.4193    0.2939    0.0000 N   0  0  0  0  0  0  0  0  0  0  0  0
    0.7048    0.7064    0.0000 C   0  0  0  0  0  0  0  0  0  0  0  0
    1.4193   -0.5311    0.0000 C   0  0  0  0  0  0  0  0  0  0  0  0
    0.7048   -0.9436    0.0000 C   0  0  0  0  0  0  0  0  0  0  0  0
    0.7048   -1.7686    0.0000 C   0  0  0  0  0  0  0  0  0  0  0  0
    1.4193   -2.1811    0.0000 C   0  0  0  0  0  0  0  0  0  0  0  0
    2.1337   -1.7686    0.0000 C   0  0  0  0  0  0  0  0  0  0  0  0
    2.1337   -0.9436    0.0000 C   0  0  0  0  0  0  0  0  0  0  0  0
  1  2  1  0  0  0  0
  2  3  1  0  0  0  0
  2  4  1  0  0  0  0
  5  4  1  0  0  0  0
  6  5  2  0  0  0  0
  7  6  1  0  0  0  0
  8  7  2  0  0  0  0
  9  8  1  0  0  0  0
  4  9  2  0  0  0  0
M  END
> <ChemID>
100615

> <CAS>
121-69-7

> <Original_SMILES>
CN(C)c1ccccc1

> <preferred_name>
N,N-Dimethylaniline

> <dsstox_substance_id>
DTXSID2020507

> <dsstox_compound_id>
DTXCID60507

> <qc_level>
DSSTox_Low

> <Canonical_QSARr>
CN(C)C1C=CC=CC=1

> <InChI_Code_QSARr>
InChI=1S/C8H11N/c1-9(2)8-6-4-3-5-7-8/h3-7H,1-2H3

> <InChI Key_QSARr>
JLTDJTHDQAWBAV-UHFFFAOYSA-N

> <Salt_Solvent>


> <Salt_Solvent_ID>
0

> <MPID>
100624

> <Tr_1_Tst_0>
1

> <Ready_Biodeg>
0.0

$$$$
Row605
  Mrv171c012251911052D          

 10 10  0  0  0  0            999 V2000
    0.0333   -2.6048    0.0000 Cl  0  0  0  0  0  0  0  0  0  0  0  0
    0.7478   -2.1923    0.0000 C   0  0  0  0  0  0  0  0  0  0  0  0
    1.4623   -2.6048    0.0000 C   0  0  0  0  0  0  0  0  0  0  0  0
    2.1767   -2.1923    0.0000 C   0  0  0  0  0  0  0  0  0  0  0  0
    2.1767   -1.3673    0.0000 C   0  0  0  0  0  0  0  0  0  0  0  0
    1.4623   -0.9548    0.0000 C   0  0  0  0  0  0  0  0  0  0  0  0
    1.4623   -0.1298    0.0000 N   0  3  0  0  0  0  0  0  0  0  0  0
    0.7478    0.2827    0.0000 O   0  5  0  0  0  0  0  0  0  0  0  0
    2.1767    0.2827    0.0000 O   0  0  0  0  0  0  0  0  0  0  0  0
    0.7478   -1.3673    0.0000 C   0  0  0  0  0  0  0  0  0  0  0  0
  1  2  1  0  0  0  0
  3  2  1  0  0  0  0
  4  3  2  0  0  0  0
  5  4  1  0  0  0  0
  6  5  2  0  0  0  0
  6  7  1  0  0  0  0
  7  8  1  0  0  0  0
  7  9  2  0  0  0  0
 10  6  1  0  0  0  0
  2 10  2  0  0  0  0
M  CHG  2   7   1   8  -1
M  END
> <ChemID>
100616

> <CAS>
121-73-3

> <Original_SMILES>
[O-][N+](=O)c1cccc(Cl)c1

> <preferred_name>
1-Chloro-3-nitrobenzene

> <dsstox_substance_id>
DTXSID4021971

> <dsstox_compound_id>
DTXCID401971

> <qc_level>
DSSTox_Low

> <Canonical_QSARr>
[O-][N+](=O)C1C=C(Cl)C=CC=1

> <InChI_Code_QSARr>
InChI=1S/C6H4ClNO2/c7-5-2-1-3-6(4-5)8(9)10/h1-4H

> <InChI Key_QSARr>
KMAQZIILEGKYQZ-UHFFFAOYSA-N

> <Salt_Solvent>


> <Salt_Solvent_ID>
0

> <MPID>
100625

> <Tr_1_Tst_0>
0

> <Ready_Biodeg>
0.0

$$$$
Row606
  Mrv171c012251911052D          

 19 18  0  0  0  0            999 V2000
    1.8978   -0.9530    0.0000 O   0  0  0  0  0  0  0  0  0  0  0  0
    1.8978   -1.7780    0.0000 C   0  0  0  0  0  0  0  0  0  0  0  0
    1.1833   -2.1905    0.0000 O   0  0  0  0  0  0  0  0  0  0  0  0
    0.4688   -1.7780    0.0000 C   0  0  0  0  0  0  0  0  0  0  0  0
   -0.2456   -2.1905    0.0000 C   0  0  0  0  0  0  0  0  0  0  0  0
    2.6122   -2.1905    0.0000 C   0  0  0  0  0  0  0  0  0  0  0  0
    3.3267   -1.7780    0.0000 C   0  0  0  0  0  0  0  0  0  0  0  0
    4.0412   -2.1905    0.0000 C   0  0  0  0  0  0  0  0  0  0  0  0
    4.7557   -1.7780    0.0000 O   0  0  0  0  0  0  0  0  0  0  0  0
    5.4701   -2.1905    0.0000 C   0  0  0  0  0  0  0  0  0  0  0  0
    6.1846   -1.7780    0.0000 C   0  0  0  0  0  0  0  0  0  0  0  0
    4.0412   -3.0155    0.0000 O   0  0  0  0  0  0  0  0  0  0  0  0
    2.6122   -3.0155    0.0000 S   0  0  0  0  0  0  0  0  0  0  0  0
    1.8978   -3.4280    0.0000 P   0  0  0  0  0  0  0  0  0  0  0  0
    1.4853   -2.7136    0.0000 O   0  0  0  0  0  0  0  0  0  0  0  0
    0.6603   -2.7136    0.0000 C   0  0  0  0  0  0  0  0  0  0  0  0
    1.1833   -3.8405    0.0000 O   0  0  0  0  0  0  0  0  0  0  0  0
    0.4688   -3.4280    0.0000 C   0  0  0  0  0  0  0  0  0  0  0  0
    2.3103   -4.1425    0.0000 S   0  0  0  0  0  0  0  0  0  0  0  0
  1  2  2  0  0  0  0
  2  3  1  0  0  0  0
  3  4  1  0  0  0  0
  4  5  1  0  0  0  0
  2  6  1  0  0  0  0
  6  7  1  0  0  0  0
  7  8  1  0  0  0  0
  8  9  1  0  0  0  0
  9 10  1  0  0  0  0
 10 11  1  0  0  0  0
  8 12  2  0  0  0  0
  6 13  1  0  0  0  0
 13 14  1  0  0  0  0
 14 15  1  0  0  0  0
 15 16  1  0  0  0  0
 14 17  1  0  0  0  0
 17 18  1  0  0  0  0
 14 19  2  0  0  0  0
M  END
> <ChemID>
100617

> <CAS>
121-75-5

> <Original_SMILES>
CCOC(=O)C(CC(=O)OCC)SP(=S)(OC)OC

> <preferred_name>
Malathion

> <dsstox_substance_id>
DTXSID4020791

> <dsstox_compound_id>
DTXCID80791

> <qc_level>
DSSTox_Low

> <Canonical_QSARr>
CCOC(=O)C(CC(=O)OCC)SP(=S)(OC)OC

> <InChI_Code_QSARr>
InChI=1S/C10H19O6PS2/c1-5-15-9(11)7-8(10(12)16-6-2)19-17(18,13-3)14-4/h8H,5-7H2,1-4H3

> <InChI Key_QSARr>
JXSJBGJIGXNWCI-UHFFFAOYSA-N

> <Salt_Solvent>


> <Salt_Solvent_ID>
0

> <MPID>
100626

> <Tr_1_Tst_0>
1

> <Ready_Biodeg>
0.0

$$$$
Row607
  Mrv171c012251911052D          

 12 12  0  0  0  0            999 V2000
    1.1313   -3.1956    0.0000 O   0  0  0  0  0  0  0  0  0  0  0  0
    1.1313   -2.3706    0.0000 C   0  0  0  0  0  0  0  0  0  0  0  0
    0.4168   -1.9581    0.0000 O   0  0  0  0  0  0  0  0  0  0  0  0
    1.8457   -1.9581    0.0000 C   0  0  0  0  0  0  0  0  0  0  0  0
    2.5602   -2.3706    0.0000 C   0  0  0  0  0  0  0  0  0  0  0  0
    3.2747   -1.9581    0.0000 C   0  0  0  0  0  0  0  0  0  0  0  0
    3.2747   -1.1331    0.0000 C   0  0  0  0  0  0  0  0  0  0  0  0
    2.5602   -0.7206    0.0000 C   0  0  0  0  0  0  0  0  0  0  0  0
    2.5602    0.1044    0.0000 C   0  0  0  0  0  0  0  0  0  0  0  0
    1.8457    0.5169    0.0000 O   0  0  0  0  0  0  0  0  0  0  0  0
    3.2747    0.5169    0.0000 O   0  0  0  0  0  0  0  0  0  0  0  0
    1.8457   -1.1331    0.0000 C   0  0  0  0  0  0  0  0  0  0  0  0
  1  2  1  0  0  0  0
  2  3  2  0  0  0  0
  2  4  1  0  0  0  0
  5  4  1  0  0  0  0
  6  5  2  0  0  0  0
  7  6  1  0  0  0  0
  8  7  2  0  0  0  0
  8  9  1  0  0  0  0
  9 10  2  0  0  0  0
  9 11  1  0  0  0  0
 12  8  1  0  0  0  0
  4 12  2  0  0  0  0
M  END
> <ChemID>
100618

> <CAS>
121-91-5

> <Original_SMILES>
OC(=O)c1cc(ccc1)C(O)=O

> <preferred_name>
1,3-Benzenedicarboxylic acid

> <dsstox_substance_id>
DTXSID3021485

> <dsstox_compound_id>
DTXCID301485

> <qc_level>
DSSTox_Low

> <Canonical_QSARr>
OC(=O)C1C=C(C=CC=1)C(O)=O

> <InChI_Code_QSARr>
InChI=1S/C8H6O4/c9-7(10)5-2-1-3-6(4-5)8(11)12/h1-4H,(H,9,10)(H,11,12)

> <InChI Key_QSARr>
QQVIHTHCMHWDBS-UHFFFAOYSA-N

> <Salt_Solvent>


> <Salt_Solvent_ID>
0

> <MPID>
100627

> <Tr_1_Tst_0>
1

> <Ready_Biodeg>
1.0

$$$$
Row608
  Mrv171c012251911052D          

 12 12  0  0  0  0            999 V2000
    3.1536   -2.3694    0.0000 C   0  0  0  0  0  0  0  0  0  0  0  0
    2.4391   -1.9569    0.0000 C   0  0  0  0  0  0  0  0  0  0  0  0
    2.4391   -1.1319    0.0000 C   0  0  0  0  0  0  0  0  0  0  0  0
    1.7246   -0.7194    0.0000 C   0  0  0  0  0  0  0  0  0  0  0  0
    1.7246    0.1056    0.0000 N   0  3  0  0  0  0  0  0  0  0  0  0
    1.0102    0.5181    0.0000 O   0  5  0  0  0  0  0  0  0  0  0  0
    2.4391    0.5181    0.0000 O   0  0  0  0  0  0  0  0  0  0  0  0
    1.0102   -1.1319    0.0000 C   0  0  0  0  0  0  0  0  0  0  0  0
    1.0102   -1.9569    0.0000 C   0  0  0  0  0  0  0  0  0  0  0  0
    1.7246   -2.3694    0.0000 C   0  0  0  0  0  0  0  0  0  0  0  0
    3.8680   -1.9569    0.0000 O   0  0  0  0  0  0  0  0  0  0  0  0
    3.1536   -3.1944    0.0000 O   0  0  0  0  0  0  0  0  0  0  0  0
  1  2  1  0  0  0  0
  3  2  1  0  0  0  0
  4  3  2  0  0  0  0
  4  5  1  0  0  0  0
  5  6  1  0  0  0  0
  5  7  2  0  0  0  0
  8  4  1  0  0  0  0
  9  8  2  0  0  0  0
 10  9  1  0  0  0  0
  2 10  2  0  0  0  0
  1 11  1  0  0  0  0
  1 12  2  0  0  0  0
M  CHG  2   5   1   6  -1
M  END
> <ChemID>
100619

> <CAS>
121-92-6

> <Original_SMILES>
[O-][N+](=O)c1cc(ccc1)C(O)=O

> <preferred_name>
3-Nitrobenzoic acid

> <dsstox_substance_id>
DTXSID0025737

> <dsstox_compound_id>
DTXCID605737

> <qc_level>
DSSTox_Low

> <Canonical_QSARr>
[O-][N+](=O)C1=CC(=CC=C1)C(O)=O

> <InChI_Code_QSARr>
InChI=1S/C7H5NO4/c9-7(10)5-2-1-3-6(4-5)8(11)12/h1-4H,(H,9,10)

> <InChI Key_QSARr>
AFPHTEQTJZKQAQ-UHFFFAOYSA-N

> <Salt_Solvent>


> <Salt_Solvent_ID>
0

> <MPID>
100628

> <Tr_1_Tst_0>
1

> <Ready_Biodeg>
0.0

$$$$
Row609
  Mrv171c012251911052D          

 17 17  0  0  0  0            999 V2000
    2.0185   -2.3363    0.0000 S   0  0  0  0  0  0  0  0  0  0  0  0
    2.4310   -3.0508    0.0000 P   0  0  0  0  0  0  0  0  0  0  0  0
    1.7166   -3.4633    0.0000 O   0  0  0  0  0  0  0  0  0  0  0  0
    1.7166   -4.2883    0.0000 C   0  0  0  0  0  0  0  0  0  0  0  0
    2.8435   -3.7653    0.0000 O   0  0  0  0  0  0  0  0  0  0  0  0
    2.4310   -4.4797    0.0000 C   0  0  0  0  0  0  0  0  0  0  0  0
    3.1455   -2.6383    0.0000 O   0  0  0  0  0  0  0  0  0  0  0  0
    3.1455   -1.8133    0.0000 C   0  0  0  0  0  0  0  0  0  0  0  0
    3.8600   -1.4008    0.0000 C   0  0  0  0  0  0  0  0  0  0  0  0
    3.8600   -0.5758    0.0000 C   0  0  0  0  0  0  0  0  0  0  0  0
    3.1455   -0.1633    0.0000 C   0  0  0  0  0  0  0  0  0  0  0  0
    3.1455    0.6617    0.0000 N   0  3  0  0  0  0  0  0  0  0  0  0
    2.4310    1.0742    0.0000 O   0  5  0  0  0  0  0  0  0  0  0  0
    3.8600    1.0742    0.0000 O   0  0  0  0  0  0  0  0  0  0  0  0
    2.4310   -0.5758    0.0000 C   0  0  0  0  0  0  0  0  0  0  0  0
    1.7166   -0.1633    0.0000 C   0  0  0  0  0  0  0  0  0  0  0  0
    2.4310   -1.4008    0.0000 C   0  0  0  0  0  0  0  0  0  0  0  0
  1  2  2  0  0  0  0
  2  3  1  0  0  0  0
  3  4  1  0  0  0  0
  2  5  1  0  0  0  0
  5  6  1  0  0  0  0
  2  7  1  0  0  0  0
  7  8  1  0  0  0  0
  9  8  2  0  0  0  0
 10  9  1  0  0  0  0
 11 10  2  0  0  0  0
 11 12  1  0  0  0  0
 12 13  1  0  0  0  0
 12 14  2  0  0  0  0
 15 11  1  0  0  0  0
 15 16  1  0  0  0  0
 17 15  2  0  0  0  0
  8 17  1  0  0  0  0
M  CHG  2  12   1  13  -1
M  END
> <ChemID>
100620

> <CAS>
122-14-5

> <Original_SMILES>
Cc1cc(ccc1[N+]([O-])=O)OP(=S)(OC)OC

> <preferred_name>
Fenitrothion

> <dsstox_substance_id>
DTXSID4032613

> <dsstox_compound_id>
DTXCID2012613

> <qc_level>
DSSTox_Low

> <Canonical_QSARr>
CC1=CC(=CC=C1[N+]([O-])=O)OP(=S)(OC)OC

> <InChI_Code_QSARr>
InChI=1S/C9H12NO5PS/c1-7-6-8(4-5-9(7)10(11)12)15-16(17,13-2)14-3/h4-6H,1-3H3

> <InChI Key_QSARr>
ZNOLGFHPUIJIMJ-UHFFFAOYSA-N

> <Salt_Solvent>


> <Salt_Solvent_ID>
0

> <MPID>
100629

> <Tr_1_Tst_0>
0

> <Ready_Biodeg>
1.0

$$$$
Row610
  Mrv171c012251911052D          

 13 12  0  0  0  0            999 V2000
    0.4108   -3.3741    0.0000 C   0  0  0  0  0  0  0  0  0  0  0  0
    1.1253   -3.7866    0.0000 C   0  0  0  0  0  0  0  0  0  0  0  0
    1.1253   -4.6116    0.0000 O   0  0  0  0  0  0  0  0  0  0  0  0
    1.8398   -3.3741    0.0000 C   0  0  0  0  0  0  0  0  0  0  0  0
    1.8398   -2.5491    0.0000 N   0  0  0  0  0  0  0  0  0  0  0  0
    1.1253   -2.1366    0.0000 C   0  0  0  0  0  0  0  0  0  0  0  0
    1.1253   -1.3116    0.0000 C   0  0  0  0  0  0  0  0  0  0  0  0
    1.8398   -0.8991    0.0000 O   0  0  0  0  0  0  0  0  0  0  0  0
    0.4108   -0.8991    0.0000 C   0  0  0  0  0  0  0  0  0  0  0  0
    2.5542   -2.1366    0.0000 C   0  0  0  0  0  0  0  0  0  0  0  0
    2.5542   -1.3116    0.0000 C   0  0  0  0  0  0  0  0  0  0  0  0
    3.2687   -0.8991    0.0000 O   0  0  0  0  0  0  0  0  0  0  0  0
    2.2187   -0.5579    0.0000 C   0  0  0  0  0  0  0  0  0  0  0  0
  1  2  1  0  0  0  0
  2  3  1  0  0  0  0
  2  4  1  0  0  0  0
  4  5  1  0  0  0  0
  5  6  1  0  0  0  0
  6  7  1  0  0  0  0
  7  8  1  0  0  0  0
  7  9  1  0  0  0  0
  5 10  1  0  0  0  0
 10 11  1  0  0  0  0
 11 12  1  0  0  0  0
 11 13  1  0  0  0  0
M  END
> <ChemID>
100621

> <CAS>
122-20-3

> <Original_SMILES>
CC(O)CN(CC(C)O)CC(C)O

> <preferred_name>
Triisopropanolamine

> <dsstox_substance_id>
DTXSID5021415

> <dsstox_compound_id>
DTXCID201415

> <qc_level>
DSSTox_High

> <Canonical_QSARr>
CC(O)CN(CC(C)O)CC(C)O

> <InChI_Code_QSARr>
InChI=1S/C9H21NO3/c1-7(11)4-10(5-8(2)12)6-9(3)13/h7-9,11-13H,4-6H2,1-3H3

> <InChI Key_QSARr>
SLINHMUFWFWBMU-UHFFFAOYSA-N

> <Salt_Solvent>


> <Salt_Solvent_ID>
0

> <MPID>
100630

> <Tr_1_Tst_0>
1

> <Ready_Biodeg>
0.0

$$$$
Row611
  Mrv171c012251911052D          

 63 62  0  0  0  0            999 V2000
   13.0895   -4.8178    0.0000 C   0  0  0  0  0  0  0  0  0  0  0  0
   13.0895   -3.9928    0.0000 C   0  0  0  0  0  0  0  0  0  0  0  0
   13.8039   -3.5803    0.0000 C   0  0  0  0  0  0  0  0  0  0  0  0
   13.8039   -2.7553    0.0000 C   0  0  0  0  0  0  0  0  0  0  0  0
   14.5184   -2.3428    0.0000 C   0  0  0  0  0  0  0  0  0  0  0  0
   14.5184   -1.5178    0.0000 C   0  0  0  0  0  0  0  0  0  0  0  0
   15.2329   -1.1053    0.0000 C   0  0  0  0  0  0  0  0  0  0  0  0
   15.2329   -0.2803    0.0000 C   0  0  0  0  0  0  0  0  0  0  0  0
   15.9474    0.1322    0.0000 C   0  0  0  0  0  0  0  0  0  0  0  0
   15.9474    0.9572    0.0000 C   0  0  0  0  0  0  0  0  0  0  0  0
   16.6618    1.3697    0.0000 C   0  0  0  0  0  0  0  0  0  0  0  0
   16.6618    2.1947    0.0000 C   0  0  0  0  0  0  0  0  0  0  0  0
   17.3763    2.6072    0.0000 C   0  0  0  0  0  0  0  0  0  0  0  0
   17.3763    3.4322    0.0000 C   0  0  0  0  0  0  0  0  0  0  0  0
   18.0908    3.8447    0.0000 C   0  0  0  0  0  0  0  0  0  0  0  0
   18.0908    4.6697    0.0000 C   0  0  0  0  0  0  0  0  0  0  0  0
   18.8052    5.0822    0.0000 C   0  0  0  0  0  0  0  0  0  0  0  0
   18.8052    5.9072    0.0000 C   0  0  0  0  0  0  0  0  0  0  0  0
   18.0908    6.3197    0.0000 O   0  0  0  0  0  0  0  0  0  0  0  0
   19.5197    6.3197    0.0000 O   0  0  0  0  0  0  0  0  0  0  0  0
   19.5197    7.1447    0.0000 C   0  0  0  0  0  0  0  0  0  0  0  0
   18.8052    7.5572    0.0000 C   0  0  0  0  0  0  0  0  0  0  0  0
   18.0908    7.1447    0.0000 O   0  0  0  0  0  0  0  0  0  0  0  0
   17.3763    7.5572    0.0000 C   0  0  0  0  0  0  0  0  0  0  0  0
   17.3763    8.3822    0.0000 O   0  0  0  0  0  0  0  0  0  0  0  0
   16.6618    7.1447    0.0000 C   0  0  0  0  0  0  0  0  0  0  0  0
   15.9474    7.5572    0.0000 C   0  0  0  0  0  0  0  0  0  0  0  0
   15.2329    7.1447    0.0000 C   0  0  0  0  0  0  0  0  0  0  0  0
   14.5184    7.5572    0.0000 C   0  0  0  0  0  0  0  0  0  0  0  0
   13.8039    7.1447    0.0000 C   0  0  0  0  0  0  0  0  0  0  0  0
   13.0895    7.5572    0.0000 C   0  0  0  0  0  0  0  0  0  0  0  0
   12.3750    7.1447    0.0000 C   0  0  0  0  0  0  0  0  0  0  0  0
   11.6605    7.5572    0.0000 C   0  0  0  0  0  0  0  0  0  0  0  0
   11.6605    8.3822    0.0000 C   0  0  0  0  0  0  0  0  0  0  0  0
   10.9461    8.7947    0.0000 C   0  0  0  0  0  0  0  0  0  0  0  0
   10.9461    9.6197    0.0000 C   0  0  0  0  0  0  0  0  0  0  0  0
   10.2316   10.0322    0.0000 C   0  0  0  0  0  0  0  0  0  0  0  0
   10.2316   10.8572    0.0000 C   0  0  0  0  0  0  0  0  0  0  0  0
    9.5171   11.2697    0.0000 C   0  0  0  0  0  0  0  0  0  0  0  0
    9.5171   12.0947    0.0000 C   0  0  0  0  0  0  0  0  0  0  0  0
    8.8026   12.5072    0.0000 C   0  0  0  0  0  0  0  0  0  0  0  0
    8.0882   12.0947    0.0000 C   0  0  0  0  0  0  0  0  0  0  0  0
   20.2342    7.5572    0.0000 C   0  0  0  0  0  0  0  0  0  0  0  0
   20.9487    7.1447    0.0000 O   0  0  0  0  0  0  0  0  0  0  0  0
   21.6631    7.5572    0.0000 C   0  0  0  0  0  0  0  0  0  0  0  0
   21.6631    8.3822    0.0000 O   0  0  0  0  0  0  0  0  0  0  0  0
   22.3776    7.1447    0.0000 C   0  0  0  0  0  0  0  0  0  0  0  0
   23.0921    7.5572    0.0000 C   0  0  0  0  0  0  0  0  0  0  0  0
   23.8065    7.1447    0.0000 C   0  0  0  0  0  0  0  0  0  0  0  0
   24.5210    7.5572    0.0000 C   0  0  0  0  0  0  0  0  0  0  0  0
   25.2355    7.1447    0.0000 C   0  0  0  0  0  0  0  0  0  0  0  0
   25.9499    7.5572    0.0000 C   0  0  0  0  0  0  0  0  0  0  0  0
   26.6644    7.1447    0.0000 C   0  0  0  0  0  0  0  0  0  0  0  0
   27.3789    7.5572    0.0000 C   0  0  0  0  0  0  0  0  0  0  0  0
   28.0934    7.1447    0.0000 C   0  0  0  0  0  0  0  0  0  0  0  0
   28.8078    7.5572    0.0000 C   0  0  0  0  0  0  0  0  0  0  0  0
   29.5223    7.1447    0.0000 C   0  0  0  0  0  0  0  0  0  0  0  0
   29.5223    6.3197    0.0000 C   0  0  0  0  0  0  0  0  0  0  0  0
   30.2368    5.9072    0.0000 C   0  0  0  0  0  0  0  0  0  0  0  0
   30.2368    5.0822    0.0000 C   0  0  0  0  0  0  0  0  0  0  0  0
   30.9512    4.6697    0.0000 C   0  0  0  0  0  0  0  0  0  0  0  0
   30.9512    3.8447    0.0000 C   0  0  0  0  0  0  0  0  0  0  0  0
   31.6657    3.4322    0.0000 C   0  0  0  0  0  0  0  0  0  0  0  0
  1  2  1  0  0  0  0
  2  3  1  0  0  0  0
  3  4  1  0  0  0  0
  4  5  1  0  0  0  0
  5  6  1  0  0  0  0
  6  7  1  0  0  0  0
  7  8  1  0  0  0  0
  9  8  1  4  0  0  0
  9 10  2  0  0  0  0
 10 11  1  0  0  0  0
 11 12  1  0  0  0  0
 12 13  1  0  0  0  0
 13 14  1  0  0  0  0
 14 15  1  0  0  0  0
 15 16  1  0  0  0  0
 16 17  1  0  0  0  0
 17 18  1  0  0  0  0
 18 19  2  0  0  0  0
 18 20  1  0  0  0  0
 20 21  1  0  0  0  0
 21 22  1  0  0  0  0
 22 23  1  0  0  0  0
 23 24  1  0  0  0  0
 24 25  2  0  0  0  0
 24 26  1  0  0  0  0
 26 27  1  0  0  0  0
 27 28  1  0  0  0  0
 28 29  1  0  0  0  0
 29 30  1  0  0  0  0
 30 31  1  0  0  0  0
 31 32  1  0  0  0  0
 33 32  1  4  0  0  0
 33 34  2  0  0  0  0
 34 35  1  0  0  0  0
 35 36  1  0  0  0  0
 36 37  1  0  0  0  0
 37 38  1  0  0  0  0
 38 39  1  0  0  0  0
 39 40  1  0  0  0  0
 40 41  1  0  0  0  0
 41 42  1  0  0  0  0
 21 43  1  0  0  0  0
 43 44  1  0  0  0  0
 44 45  1  0  0  0  0
 45 46  2  0  0  0  0
 45 47  1  0  0  0  0
 47 48  1  0  0  0  0
 48 49  1  0  0  0  0
 49 50  1  0  0  0  0
 50 51  1  0  0  0  0
 51 52  1  0  0  0  0
 52 53  1  0  0  0  0
 54 53  1  4  0  0  0
 54 55  2  0  0  0  0
 55 56  1  0  0  0  0
 56 57  1  0  0  0  0
 57 58  1  0  0  0  0
 58 59  1  0  0  0  0
 59 60  1  0  0  0  0
 60 61  1  0  0  0  0
 61 62  1  0  0  0  0
 62 63  1  0  0  0  0
M  END
> <ChemID>
100622

> <CAS>
122-32-7

> <Original_SMILES>
CCCCCCCC/C=C\CCCCCCCC(=O)OC(COC(=O)CCCCCCC/C=C\CCCCCCCC)COC(=O)CCCCCCC/C=C\CCCCCCCC

> <preferred_name>
Glyceryl trioleate

> <dsstox_substance_id>
DTXSID3026988

> <dsstox_compound_id>
DTXCID006988

> <qc_level>
DSSTox_High

> <Canonical_QSARr>
CCCCCCCCC=CCCCCCCCC(=O)OC(COC(=O)CCCCCCCC=CCCCCCCCC)COC(=O)CCCCCCCC=CCCCCCCCC

> <InChI_Code_QSARr>
InChI=1S/C57H104O6/c1-4-7-10-13-16-19-22-25-28-31-34-37-40-43-46-49-55(58)61-52-54(63-57(60)51-48-45-42-39-36-33-30-27-24-21-18-15-12-9-6-3)53-62-56(59)50-47-44-41-38-35-32-29-26-23-20-17-14-11-8-5-2/h25-30,54H,4-24,31-53H2,1-3H3

> <InChI Key_QSARr>
PHYFQTYBJUILEZ-UHFFFAOYSA-N

> <Salt_Solvent>


> <Salt_Solvent_ID>
0

> <MPID>
100631

> <Tr_1_Tst_0>
1

> <Ready_Biodeg>
1.0

$$$$
Row612
  Mrv171c012251911052D          

 13 13  0  0  0  0            999 V2000
    3.8567   -2.9222    0.0000 Cl  0  0  0  0  0  0  0  0  0  0  0  0
    3.1422   -2.5097    0.0000 C   0  0  0  0  0  0  0  0  0  0  0  0
    3.1422   -1.6847    0.0000 N   0  0  0  0  0  0  0  0  0  0  0  0
    2.4277   -1.2722    0.0000 C   0  0  0  0  0  0  0  0  0  0  0  0
    2.4277   -0.4472    0.0000 N   0  0  0  0  0  0  0  0  0  0  0  0
    3.1422   -0.0347    0.0000 C   0  0  0  0  0  0  0  0  0  0  0  0
    3.1422    0.7903    0.0000 C   0  0  0  0  0  0  0  0  0  0  0  0
    1.7133   -1.6847    0.0000 N   0  0  0  0  0  0  0  0  0  0  0  0
    1.7133   -2.5097    0.0000 C   0  0  0  0  0  0  0  0  0  0  0  0
    0.9988   -2.9222    0.0000 N   0  0  0  0  0  0  0  0  0  0  0  0
    0.2843   -2.5097    0.0000 C   0  0  0  0  0  0  0  0  0  0  0  0
   -0.4301   -2.9222    0.0000 C   0  0  0  0  0  0  0  0  0  0  0  0
    2.4277   -2.9222    0.0000 N   0  0  0  0  0  0  0  0  0  0  0  0
  1  2  1  0  0  0  0
  3  2  1  0  0  0  0
  4  3  2  0  0  0  0
  4  5  1  0  0  0  0
  5  6  1  0  0  0  0
  6  7  1  0  0  0  0
  8  4  1  0  0  0  0
  9  8  2  0  0  0  0
  9 10  1  0  0  0  0
 10 11  1  0  0  0  0
 11 12  1  0  0  0  0
 13  9  1  0  0  0  0
  2 13  2  0  0  0  0
M  END
> <ChemID>
100623

> <CAS>
122-34-9

> <Original_SMILES>
CCNc1[n]c(Cl)[n]c(NCC)[n]1

> <preferred_name>
Simazine

> <dsstox_substance_id>
DTXSID4021268

> <dsstox_compound_id>
DTXCID501268

> <qc_level>
DSSTox_Low

> <Canonical_QSARr>
CCNC1=NC(Cl)=NC(NCC)=N1

> <InChI_Code_QSARr>
InChI=1S/C7H12ClN5/c1-3-9-6-11-5(8)12-7(13-6)10-4-2/h3-4H2,1-2H3,(H2,9,10,11,12,13)

> <InChI Key_QSARr>
ODCWYMIRDDJXKW-UHFFFAOYSA-N

> <Salt_Solvent>


> <Salt_Solvent_ID>
0

> <MPID>
100632

> <Tr_1_Tst_0>
1

> <Ready_Biodeg>
0.0

$$$$
Row613
  Mrv171c012251911052D          

 13 14  0  0  0  0            999 V2000
    3.5155   -1.7446    0.0000 C   0  0  0  0  0  0  0  0  0  0  0  0
    2.8010   -1.3321    0.0000 C   0  0  0  0  0  0  0  0  0  0  0  0
    2.8010   -0.5071    0.0000 N   0  0  0  0  0  0  0  0  0  0  0  0
    2.0865   -0.0946    0.0000 C   0  0  0  0  0  0  0  0  0  0  0  0
    2.0865    0.7304    0.0000 C   0  0  0  0  0  0  0  0  0  0  0  0
    1.3721    1.1429    0.0000 C   0  0  0  0  0  0  0  0  0  0  0  0
    0.6576    0.7304    0.0000 C   0  0  0  0  0  0  0  0  0  0  0  0
    0.6576   -0.0946    0.0000 C   0  0  0  0  0  0  0  0  0  0  0  0
    1.3721   -0.5071    0.0000 C   0  0  0  0  0  0  0  0  0  0  0  0
    2.0865   -1.7446    0.0000 C   0  0  0  0  0  0  0  0  0  0  0  0
    2.0865   -2.5696    0.0000 C   0  0  0  0  0  0  0  0  0  0  0  0
    2.8010   -2.9821    0.0000 C   0  0  0  0  0  0  0  0  0  0  0  0
    3.5155   -2.5696    0.0000 C   0  0  0  0  0  0  0  0  0  0  0  0
  2  1  1  0  0  0  0
  2  3  1  0  0  0  0
  3  4  1  0  0  0  0
  5  4  1  0  0  0  0
  6  5  2  0  0  0  0
  7  6  1  0  0  0  0
  8  7  2  0  0  0  0
  9  8  1  0  0  0  0
  4  9  2  0  0  0  0
 10  2  2  0  0  0  0
 11 10  1  0  0  0  0
 12 11  2  0  0  0  0
 13 12  1  0  0  0  0
  1 13  2  0  0  0  0
M  END
> <ChemID>
100624

> <CAS>
122-39-4

> <Original_SMILES>
c1ccccc1Nc1ccccc1

> <preferred_name>
Diphenylamine

> <dsstox_substance_id>
DTXSID4021975

> <dsstox_compound_id>
DTXCID001975

> <qc_level>
DSSTox_Low

> <Canonical_QSARr>
C1=CC=CC=C1NC1C=CC=CC=1

> <InChI_Code_QSARr>
InChI=1S/C12H11N/c1-3-7-11(8-4-1)13-12-9-5-2-6-10-12/h1-10,13H

> <InChI Key_QSARr>
DMBHHRLKUKUOEG-UHFFFAOYSA-N

> <Salt_Solvent>


> <Salt_Solvent_ID>
0

> <MPID>
100633

> <Tr_1_Tst_0>
0

> <Ready_Biodeg>
0.0

$$$$
Row614
  Mrv171c012251911052D          

 15 15  0  0  0  0            999 V2000
    2.1434   -1.2375    0.0000 C   0  0  0  0  0  0  0  0  0  0  0  0
    2.8579   -0.8250    0.0000 C   0  0  0  0  0  0  0  0  0  0  0  0
    3.5724   -1.2375    0.0000 C   0  0  0  0  0  0  0  0  0  0  0  0
    4.2868   -0.8250    0.0000 C   0  0  0  0  0  0  0  0  0  0  0  0
    5.0013   -1.2375    0.0000 C   0  0  0  0  0  0  0  0  0  0  0  0
    5.7158   -0.8250    0.0000 C   0  0  0  0  0  0  0  0  0  0  0  0
    5.7158    0.0000    0.0000 C   0  0  0  0  0  0  0  0  0  0  0  0
    6.4302    0.4125    0.0000 O   0  0  0  0  0  0  0  0  0  0  0  0
    6.4302   -1.2375    0.0000 C   0  0  0  0  0  0  0  0  0  0  0  0
    6.4302   -2.0625    0.0000 C   0  0  0  0  0  0  0  0  0  0  0  0
    7.1447   -2.4750    0.0000 C   0  0  0  0  0  0  0  0  0  0  0  0
    7.1447   -3.3000    0.0000 C   0  0  0  0  0  0  0  0  0  0  0  0
    6.4302   -3.7125    0.0000 C   0  0  0  0  0  0  0  0  0  0  0  0
    5.7158   -3.3000    0.0000 C   0  0  0  0  0  0  0  0  0  0  0  0
    5.7158   -2.4750    0.0000 C   0  0  0  0  0  0  0  0  0  0  0  0
  1  2  1  0  0  0  0
  2  3  1  0  0  0  0
  3  4  1  0  0  0  0
  4  5  1  0  0  0  0
  5  6  1  0  0  0  0
  6  7  1  0  0  0  0
  7  8  2  0  0  0  0
  6  9  2  0  0  0  0
  9 10  1  4  0  0  0
 10 11  1  0  0  0  0
 11 12  2  0  0  0  0
 12 13  1  0  0  0  0
 13 14  2  0  0  0  0
 14 15  1  0  0  0  0
 10 15  2  0  0  0  0
M  END
> <ChemID>
100625

> <CAS>
78605-96-6

> <Original_SMILES>
CCCCCC(C=O)=Cc1ccccc1

> <preferred_name>
Pentylcinnamaldehyde

> <dsstox_substance_id>
DTXSID80859230

> <dsstox_compound_id>
DTXCID00196477

> <qc_level>
DSSTox_High

> <Canonical_QSARr>
CCCCCC(C=O)=CC1C=CC=CC=1

> <InChI_Code_QSARr>
InChI=1S/C14H18O/c1-2-3-5-10-14(12-15)11-13-8-6-4-7-9-13/h4,6-9,11-12H,2-3,5,10H2,1H3

> <InChI Key_QSARr>
HMKKIXGYKWDQSV-UHFFFAOYSA-N

> <Salt_Solvent>


> <Salt_Solvent_ID>
0

> <MPID>
100634

> <Tr_1_Tst_0>
1

> <Ready_Biodeg>
1.0

$$$$
Row615
  Mrv171c012251911052D          

 11 11  0  0  0  0            999 V2000
   -0.7145    3.7125    0.0000 C   0  0  0  0  0  0  0  0  0  0  0  0
    0.0000    3.3000    0.0000 C   0  0  0  0  0  0  0  0  0  0  0  0
    0.7145    3.7125    0.0000 O   0  0  0  0  0  0  0  0  0  0  0  0
    0.0000    2.4750    0.0000 C   0  0  0  0  0  0  0  0  0  0  0  0
    0.7145    2.0625    0.0000 C   0  0  0  0  0  0  0  0  0  0  0  0
    0.7145    1.2375    0.0000 C   0  0  0  0  0  0  0  0  0  0  0  0
    1.4289    0.8250    0.0000 C   0  0  0  0  0  0  0  0  0  0  0  0
    1.4289   -0.0000    0.0000 C   0  0  0  0  0  0  0  0  0  0  0  0
    0.7145   -0.4125    0.0000 C   0  0  0  0  0  0  0  0  0  0  0  0
    0.0000    0.0000    0.0000 C   0  0  0  0  0  0  0  0  0  0  0  0
    0.0000    0.8250    0.0000 C   0  0  0  0  0  0  0  0  0  0  0  0
  1  2  1  0  0  0  0
  2  3  2  0  0  0  0
  4  2  1  4  0  0  0
  4  5  2  0  0  0  0
  5  6  1  0  0  0  0
  6  7  1  0  0  0  0
  7  8  2  0  0  0  0
  8  9  1  0  0  0  0
  9 10  2  0  0  0  0
 10 11  1  0  0  0  0
  6 11  2  0  0  0  0
M  END
> <ChemID>
100626

> <CAS>
122-57-6

> <Original_SMILES>
CC(=O)C=Cc1ccccc1

> <preferred_name>
Methyl styryl ketone

> <dsstox_substance_id>
DTXSID4025662

> <dsstox_compound_id>
DTXCID305662

> <qc_level>
DSSTox_Low

> <Canonical_QSARr>
CC(=O)C=CC1C=CC=CC=1

> <InChI_Code_QSARr>
InChI=1S/C10H10O/c1-9(11)7-8-10-5-3-2-4-6-10/h2-8H,1H3

> <InChI Key_QSARr>
BWHOZHOGCMHOBV-UHFFFAOYSA-N

> <Salt_Solvent>


> <Salt_Solvent_ID>
0

> <MPID>
100635

> <Tr_1_Tst_0>
1

> <Ready_Biodeg>
0.0

$$$$
Row616
  Mrv171c012251911052D          

 11 12  0  0  0  0            999 V2000
    2.3352   -1.3671    0.0000 O   0  0  0  0  0  0  0  0  0  0  0  0
    1.6208   -1.7796    0.0000 C   0  0  0  0  0  0  0  0  0  0  0  0
    1.6208   -2.6046    0.0000 C   0  0  0  0  0  0  0  0  0  0  0  0
    1.2083   -3.3191    0.0000 O   0  0  0  0  0  0  0  0  0  0  0  0
    2.0333   -3.3191    0.0000 C   0  0  0  0  0  0  0  0  0  0  0  0
    2.3352   -0.5421    0.0000 C   0  0  0  0  0  0  0  0  0  0  0  0
    3.0497   -0.1296    0.0000 C   0  0  0  0  0  0  0  0  0  0  0  0
    3.0497    0.6954    0.0000 C   0  0  0  0  0  0  0  0  0  0  0  0
    2.3352    1.1079    0.0000 C   0  0  0  0  0  0  0  0  0  0  0  0
    1.6208    0.6954    0.0000 C   0  0  0  0  0  0  0  0  0  0  0  0
    1.6208   -0.1296    0.0000 C   0  0  0  0  0  0  0  0  0  0  0  0
  1  2  1  0  0  0  0
  2  3  1  0  0  0  0
  4  3  1  0  0  0  0
  5  4  1  0  0  0  0
  3  5  1  0  0  0  0
  1  6  1  0  0  0  0
  7  6  1  0  0  0  0
  8  7  2  0  0  0  0
  9  8  1  0  0  0  0
 10  9  2  0  0  0  0
 11 10  1  0  0  0  0
  6 11  2  0  0  0  0
M  END
> <ChemID>
100627

> <CAS>
122-60-1

> <Original_SMILES>
C(Oc1ccccc1)C1CO1

> <preferred_name>
Phenyl glycidyl ether

> <dsstox_substance_id>
DTXSID8021145

> <dsstox_compound_id>
DTXCID501145

> <qc_level>
DSSTox_Low

> <Canonical_QSARr>
C(OC1C=CC=CC=1)C1CO1

> <InChI_Code_QSARr>
InChI=1S/C9H10O2/c1-2-4-8(5-3-1)10-6-9-7-11-9/h1-5,9H,6-7H2

> <InChI Key_QSARr>
FQYUMYWMJTYZTK-UHFFFAOYSA-N

> <Salt_Solvent>


> <Salt_Solvent_ID>
0

> <MPID>
100636

> <Tr_1_Tst_0>
1

> <Ready_Biodeg>
0.0

$$$$
Row617
  Mrv171c012251911052D          

 11 11  0  0  0  0            999 V2000
    1.7519   -3.1869    0.0000 O   0  0  0  0  0  0  0  0  0  0  0  0
    1.7519   -2.3619    0.0000 C   0  0  0  0  0  0  0  0  0  0  0  0
    1.0375   -1.9494    0.0000 C   0  0  0  0  0  0  0  0  0  0  0  0
    2.4664   -1.9494    0.0000 N   0  0  0  0  0  0  0  0  0  0  0  0
    2.4664   -1.1244    0.0000 C   0  0  0  0  0  0  0  0  0  0  0  0
    3.1809   -0.7119    0.0000 C   0  0  0  0  0  0  0  0  0  0  0  0
    3.1809    0.1131    0.0000 C   0  0  0  0  0  0  0  0  0  0  0  0
    2.4664    0.5256    0.0000 C   0  0  0  0  0  0  0  0  0  0  0  0
    2.4664    1.3506    0.0000 N   0  0  0  0  0  0  0  0  0  0  0  0
    1.7519    0.1131    0.0000 C   0  0  0  0  0  0  0  0  0  0  0  0
    1.7519   -0.7119    0.0000 C   0  0  0  0  0  0  0  0  0  0  0  0
  1  2  2  0  0  0  0
  2  3  1  0  0  0  0
  2  4  1  0  0  0  0
  4  5  1  0  0  0  0
  6  5  1  0  0  0  0
  7  6  2  0  0  0  0
  8  7  1  0  0  0  0
  8  9  1  0  0  0  0
 10  8  2  0  0  0  0
 11 10  1  0  0  0  0
  5 11  2  0  0  0  0
M  END
> <ChemID>
100628

> <CAS>
122-80-5

> <Original_SMILES>
CC(=O)Nc1ccc(N)cc1

> <preferred_name>
4-Aminoacetanilide

> <dsstox_substance_id>
DTXSID7024455

> <dsstox_compound_id>
DTXCID704455

> <qc_level>
DSSTox_Low

> <Canonical_QSARr>
CC(=O)NC1C=CC(N)=CC=1

> <InChI_Code_QSARr>
InChI=1S/C8H10N2O/c1-6(11)10-8-4-2-7(9)3-5-8/h2-5H,9H2,1H3,(H,10,11)

> <InChI Key_QSARr>
CHMBIJAOCISYEW-UHFFFAOYSA-N

> <Salt_Solvent>


> <Salt_Solvent_ID>
0

> <MPID>
100637

> <Tr_1_Tst_0>
0

> <Ready_Biodeg>
1.0

$$$$
Row618
  Mrv171c012251911052D          

 18 18  0  0  0  0            999 V2000
    1.4539   -0.4131    0.0000 C   0  0  0  0  0  0  0  0  0  0  0  0
    2.1684   -0.0006    0.0000 C   0  0  0  0  0  0  0  0  0  0  0  0
    2.8828   -0.4131    0.0000 C   0  0  0  0  0  0  0  0  0  0  0  0
    3.5973   -0.0006    0.0000 C   0  0  0  0  0  0  0  0  0  0  0  0
    4.3118   -0.4131    0.0000 C   0  0  0  0  0  0  0  0  0  0  0  0
    5.0262   -0.0006    0.0000 C   0  0  0  0  0  0  0  0  0  0  0  0
    5.7407   -0.4131    0.0000 C   0  0  0  0  0  0  0  0  0  0  0  0
    6.4552   -0.0006    0.0000 C   0  0  0  0  0  0  0  0  0  0  0  0
    7.1696   -0.4131    0.0000 C   0  0  0  0  0  0  0  0  0  0  0  0
    7.8841   -0.0006    0.0000 C   0  0  0  0  0  0  0  0  0  0  0  0
    8.5986   -0.4131    0.0000 C   0  0  0  0  0  0  0  0  0  0  0  0
    9.3131   -0.0006    0.0000 C   0  0  0  0  0  0  0  0  0  0  0  0
   10.0275   -0.4131    0.0000 C   0  0  0  0  0  0  0  0  0  0  0  0
    0.7394   -0.0006    0.0000 C   0  0  0  0  0  0  0  0  0  0  0  0
    0.0249   -0.4131    0.0000 C   0  0  0  0  0  0  0  0  0  0  0  0
    0.0249   -1.2381    0.0000 C   0  0  0  0  0  0  0  0  0  0  0  0
    0.7394   -1.6506    0.0000 C   0  0  0  0  0  0  0  0  0  0  0  0
    1.4539   -1.2381    0.0000 C   0  0  0  0  0  0  0  0  0  0  0  0
  1  2  1  0  0  0  0
  2  3  1  0  0  0  0
  3  4  1  0  0  0  0
  4  5  1  0  0  0  0
  5  6  1  0  0  0  0
  6  7  1  0  0  0  0
  7  8  1  0  0  0  0
  8  9  1  0  0  0  0
  9 10  1  0  0  0  0
 10 11  1  0  0  0  0
 11 12  1  0  0  0  0
 12 13  1  0  0  0  0
 14  1  1  0  0  0  0
 15 14  2  0  0  0  0
 16 15  1  0  0  0  0
 17 16  2  0  0  0  0
 18 17  1  0  0  0  0
  1 18  2  0  0  0  0
M  END
> <ChemID>
100629

> <CAS>
123-01-3

> <Original_SMILES>
CCCCCCCCCCCCc1ccccc1

> <preferred_name>
Dodecylbenzene

> <dsstox_substance_id>
DTXSID7026994

> <dsstox_compound_id>
DTXCID706994

> <qc_level>
DSSTox_Low

> <Canonical_QSARr>
CCCCCCCCCCCCC1C=CC=CC=1

> <InChI_Code_QSARr>
InChI=1S/C18H30/c1-2-3-4-5-6-7-8-9-10-12-15-18-16-13-11-14-17-18/h11,13-14,16-17H,2-10,12,15H2,1H3

> <InChI Key_QSARr>
KWKXNDCHNDYVRT-UHFFFAOYSA-N

> <Salt_Solvent>


> <Salt_Solvent_ID>
0

> <MPID>
100638

> <Tr_1_Tst_0>
1

> <Ready_Biodeg>
1.0

$$$$
Row619
  Mrv171c012251911052D          

 35 34  0  0  0  0            999 V2000
    8.3210   -2.1100    0.0000 C   0  0  0  0  0  0  0  0  0  0  0  0
    8.3210   -2.9350    0.0000 O   0  0  0  0  0  0  0  0  0  0  0  0
    7.6065   -1.6975    0.0000 O   0  0  0  0  0  0  0  0  0  0  0  0
    6.8921   -2.1100    0.0000 C   0  0  0  0  0  0  0  0  0  0  0  0
    6.1776   -1.6975    0.0000 C   0  0  0  0  0  0  0  0  0  0  0  0
    5.4631   -2.1100    0.0000 C   0  0  0  0  0  0  0  0  0  0  0  0
    4.7487   -1.6975    0.0000 C   0  0  0  0  0  0  0  0  0  0  0  0
    4.0342   -2.1100    0.0000 C   0  0  0  0  0  0  0  0  0  0  0  0
    3.3197   -1.6975    0.0000 C   0  0  0  0  0  0  0  0  0  0  0  0
    2.6052   -2.1100    0.0000 C   0  0  0  0  0  0  0  0  0  0  0  0
    1.8908   -1.6975    0.0000 C   0  0  0  0  0  0  0  0  0  0  0  0
    1.1763   -2.1100    0.0000 C   0  0  0  0  0  0  0  0  0  0  0  0
    0.4618   -1.6975    0.0000 C   0  0  0  0  0  0  0  0  0  0  0  0
   -0.2526   -2.1100    0.0000 C   0  0  0  0  0  0  0  0  0  0  0  0
   -0.9671   -1.6975    0.0000 C   0  0  0  0  0  0  0  0  0  0  0  0
    9.0355   -1.6975    0.0000 C   0  0  0  0  0  0  0  0  0  0  0  0
    9.7500   -2.1100    0.0000 C   0  0  0  0  0  0  0  0  0  0  0  0
   10.4644   -1.6975    0.0000 S   0  0  0  0  0  0  0  0  0  0  0  0
   11.1789   -2.1100    0.0000 C   0  0  0  0  0  0  0  0  0  0  0  0
   11.8934   -1.6975    0.0000 C   0  0  0  0  0  0  0  0  0  0  0  0
   12.6078   -2.1100    0.0000 C   0  0  0  0  0  0  0  0  0  0  0  0
   12.6078   -2.9350    0.0000 O   0  0  0  0  0  0  0  0  0  0  0  0
   13.3223   -1.6975    0.0000 O   0  0  0  0  0  0  0  0  0  0  0  0
   14.0368   -2.1100    0.0000 C   0  0  0  0  0  0  0  0  0  0  0  0
   14.7513   -1.6975    0.0000 C   0  0  0  0  0  0  0  0  0  0  0  0
   15.4657   -2.1100    0.0000 C   0  0  0  0  0  0  0  0  0  0  0  0
   16.1802   -1.6975    0.0000 C   0  0  0  0  0  0  0  0  0  0  0  0
   16.8947   -2.1100    0.0000 C   0  0  0  0  0  0  0  0  0  0  0  0
   17.6091   -1.6975    0.0000 C   0  0  0  0  0  0  0  0  0  0  0  0
   18.3236   -2.1100    0.0000 C   0  0  0  0  0  0  0  0  0  0  0  0
   19.0381   -1.6975    0.0000 C   0  0  0  0  0  0  0  0  0  0  0  0
   19.7526   -2.1100    0.0000 C   0  0  0  0  0  0  0  0  0  0  0  0
   20.4670   -1.6975    0.0000 C   0  0  0  0  0  0  0  0  0  0  0  0
   21.1815   -2.1100    0.0000 C   0  0  0  0  0  0  0  0  0  0  0  0
   21.8960   -1.6975    0.0000 C   0  0  0  0  0  0  0  0  0  0  0  0
  1  2  2  0  0  0  0
  1  3  1  0  0  0  0
  3  4  1  0  0  0  0
  4  5  1  0  0  0  0
  5  6  1  0  0  0  0
  6  7  1  0  0  0  0
  7  8  1  0  0  0  0
  8  9  1  0  0  0  0
  9 10  1  0  0  0  0
 10 11  1  0  0  0  0
 11 12  1  0  0  0  0
 12 13  1  0  0  0  0
 13 14  1  0  0  0  0
 14 15  1  0  0  0  0
  1 16  1  0  0  0  0
 16 17  1  0  0  0  0
 17 18  1  0  0  0  0
 18 19  1  0  0  0  0
 19 20  1  0  0  0  0
 20 21  1  0  0  0  0
 21 22  2  0  0  0  0
 21 23  1  0  0  0  0
 23 24  1  0  0  0  0
 24 25  1  0  0  0  0
 25 26  1  0  0  0  0
 26 27  1  0  0  0  0
 27 28  1  0  0  0  0
 28 29  1  0  0  0  0
 29 30  1  0  0  0  0
 30 31  1  0  0  0  0
 31 32  1  0  0  0  0
 32 33  1  0  0  0  0
 33 34  1  0  0  0  0
 34 35  1  0  0  0  0
M  END
> <ChemID>
100630

> <CAS>
123-28-4

> <Original_SMILES>
CCCCCCCCCCCCOC(=O)CCSCCC(=O)OCCCCCCCCCCCC

> <preferred_name>
Propanoic acid, 3,3'-thiobis-, didodecyl ester

> <dsstox_substance_id>
DTXSID2026999

> <dsstox_compound_id>
DTXCID706999

> <qc_level>
DSSTox_Low

> <Canonical_QSARr>
CCCCCCCCCCCCOC(=O)CCSCCC(=O)OCCCCCCCCCCCC

> <InChI_Code_QSARr>
InChI=1S/C30H58O4S/c1-3-5-7-9-11-13-15-17-19-21-25-33-29(31)23-27-35-28-24-30(32)34-26-22-20-18-16-14-12-10-8-6-4-2/h3-28H2,1-2H3

> <InChI Key_QSARr>
GHKOFFNLGXMVNJ-UHFFFAOYSA-N

> <Salt_Solvent>


> <Salt_Solvent_ID>
0

> <MPID>
100639

> <Tr_1_Tst_0>
1

> <Ready_Biodeg>
1.0

$$$$
Row620
  Mrv171c012251911052D          

  8  8  0  0  0  0            999 V2000
    1.6500   -2.3653    0.0000 O   0  0  0  0  0  0  0  0  0  0  0  0
    1.6500   -1.5403    0.0000 C   0  0  0  0  0  0  0  0  0  0  0  0
    2.3645   -1.1278    0.0000 C   0  0  0  0  0  0  0  0  0  0  0  0
    2.3645   -0.3028    0.0000 C   0  0  0  0  0  0  0  0  0  0  0  0
    1.6500    0.1097    0.0000 C   0  0  0  0  0  0  0  0  0  0  0  0
    1.6500    0.9347    0.0000 N   0  0  0  0  0  0  0  0  0  0  0  0
    0.9355   -0.3028    0.0000 C   0  0  0  0  0  0  0  0  0  0  0  0
    0.9355   -1.1278    0.0000 C   0  0  0  0  0  0  0  0  0  0  0  0
  1  2  1  0  0  0  0
  3  2  1  0  0  0  0
  4  3  2  0  0  0  0
  5  4  1  0  0  0  0
  5  6  1  0  0  0  0
  7  5  2  0  0  0  0
  8  7  1  0  0  0  0
  2  8  2  0  0  0  0
M  END
> <ChemID>
100631

> <CAS>
123-30-8

> <Original_SMILES>
Nc1ccc(O)cc1

> <preferred_name>
4-Aminophenol

> <dsstox_substance_id>
DTXSID3024499

> <dsstox_compound_id>
DTXCID504499

> <qc_level>
DSSTox_Low

> <Canonical_QSARr>
NC1=CC=C(O)C=C1

> <InChI_Code_QSARr>
InChI=1S/C6H7NO/c7-5-1-3-6(8)4-2-5/h1-4,8H,7H2

> <InChI Key_QSARr>
PLIKAWJENQZMHA-UHFFFAOYSA-N

> <Salt_Solvent>


> <Salt_Solvent_ID>
0

> <MPID>
100640

> <Tr_1_Tst_0>
1

> <Ready_Biodeg>
1.0

$$$$
Row621
  Mrv171c012251911052D          

  8  8  0  0  0  0            999 V2000
    1.6500   -2.3653    0.0000 O   0  0  0  0  0  0  0  0  0  0  0  0
    1.6500   -1.5403    0.0000 C   0  0  0  0  0  0  0  0  0  0  0  0
    2.3645   -1.1278    0.0000 C   0  0  0  0  0  0  0  0  0  0  0  0
    2.3645   -0.3028    0.0000 C   0  0  0  0  0  0  0  0  0  0  0  0
    1.6500    0.1097    0.0000 C   0  0  0  0  0  0  0  0  0  0  0  0
    1.6500    0.9347    0.0000 O   0  0  0  0  0  0  0  0  0  0  0  0
    0.9355   -0.3028    0.0000 C   0  0  0  0  0  0  0  0  0  0  0  0
    0.9355   -1.1278    0.0000 C   0  0  0  0  0  0  0  0  0  0  0  0
  1  2  1  0  0  0  0
  3  2  1  0  0  0  0
  4  3  2  0  0  0  0
  5  4  1  0  0  0  0
  5  6  1  0  0  0  0
  7  5  2  0  0  0  0
  8  7  1  0  0  0  0
  2  8  2  0  0  0  0
M  END
> <ChemID>
100632

> <CAS>
123-31-9

> <Original_SMILES>
Oc1ccc(O)cc1

> <preferred_name>
Hydroquinone

> <dsstox_substance_id>
DTXSID7020716

> <dsstox_compound_id>
DTXCID70716

> <qc_level>
DSSTox_Low

> <Canonical_QSARr>
OC1C=CC(O)=CC=1

> <InChI_Code_QSARr>
InChI=1S/C6H6O2/c7-5-1-2-6(8)4-3-5/h1-4,7-8H

> <InChI Key_QSARr>
QIGBRXMKCJKVMJ-UHFFFAOYSA-N

> <Salt_Solvent>


> <Salt_Solvent_ID>
0

> <MPID>
100641

> <Tr_1_Tst_0>
0

> <Ready_Biodeg>
1.0

$$$$
Row622
  Mrv171c012251911052D          

  8  8  0  0  0  0            999 V2000
    1.6499   -2.3652    0.0000 O   0  0  0  0  0  0  0  0  0  0  0  0
    1.6499   -1.5402    0.0000 C   0  0  0  0  0  0  0  0  0  0  0  0
    2.3644   -1.1277    0.0000 N   0  0  0  0  0  0  0  0  0  0  0  0
    2.3644   -0.3027    0.0000 N   0  0  0  0  0  0  0  0  0  0  0  0
    1.6499    0.1098    0.0000 C   0  0  0  0  0  0  0  0  0  0  0  0
    1.6499    0.9348    0.0000 O   0  0  0  0  0  0  0  0  0  0  0  0
    0.9354   -0.3027    0.0000 C   0  0  0  0  0  0  0  0  0  0  0  0
    0.9354   -1.1277    0.0000 C   0  0  0  0  0  0  0  0  0  0  0  0
  1  2  2  0  0  0  0
  3  2  1  0  0  0  0
  4  3  1  0  0  0  0
  5  4  1  0  0  0  0
  5  6  2  0  0  0  0
  7  5  1  0  0  0  0
  8  7  2  0  0  0  0
  2  8  1  0  0  0  0
M  END
> <ChemID>
100633

> <CAS>
123-33-1

> <Original_SMILES>
O=C1C=CC(=O)NN1

> <preferred_name>
Maleic hydrazide

> <dsstox_substance_id>
DTXSID9020792

> <dsstox_compound_id>
DTXCID10792

> <qc_level>
DSSTox_Low

> <Canonical_QSARr>
O=C1C=CC(=O)NN1

> <InChI_Code_QSARr>
InChI=1S/C4H4N2O2/c7-3-1-2-4(8)6-5-3/h1-2H,(H,5,7)(H,6,8)

> <InChI Key_QSARr>
BGRDGMRNKXEXQD-UHFFFAOYSA-N

> <Salt_Solvent>


> <Salt_Solvent_ID>
0

> <MPID>
100642

> <Tr_1_Tst_0>
1

> <Ready_Biodeg>
1.0

$$$$
Row623
  Mrv171c012251911052D          

 10  9  0  0  0  0            999 V2000
    3.0849   -0.3647    0.0000 C   0  0  0  0  0  0  0  0  0  0  0  0
    2.3704   -0.7772    0.0000 C   0  0  0  0  0  0  0  0  0  0  0  0
    1.6559   -0.3647    0.0000 C   0  0  0  0  0  0  0  0  0  0  0  0
    0.9415   -0.7772    0.0000 C   0  0  0  0  0  0  0  0  0  0  0  0
    0.9415   -1.6022    0.0000 C   0  0  0  0  0  0  0  0  0  0  0  0
    1.6559   -2.0147    0.0000 C   0  0  0  0  0  0  0  0  0  0  0  0
    0.2270   -2.0147    0.0000 C   0  0  0  0  0  0  0  0  0  0  0  0
    3.7994   -0.7772    0.0000 C   0  0  0  0  0  0  0  0  0  0  0  0
    4.5138   -0.3647    0.0000 C   0  0  0  0  0  0  0  0  0  0  0  0
    3.0849    0.4603    0.0000 C   0  0  0  0  0  0  0  0  0  0  0  0
  1  2  1  0  0  0  0
  2  3  1  0  0  0  0
  3  4  1  0  0  0  0
  4  5  2  0  0  0  0
  5  6  1  0  0  0  0
  5  7  1  0  0  0  0
  1  8  1  0  0  0  0
  8  9  2  0  0  0  0
  1 10  2  0  0  0  0
M  END
> <ChemID>
100634

> <CAS>
123-35-3

> <Original_SMILES>
CC(C)=CCCC(=C)C=C

> <preferred_name>
Myrcene

> <dsstox_substance_id>
DTXSID6025692

> <dsstox_compound_id>
DTXCID205692

> <qc_level>
DSSTox_Low

> <Canonical_QSARr>
CC(C)=CCCC(=C)C=C

> <InChI_Code_QSARr>
InChI=1S/C10H16/c1-5-10(4)8-6-7-9(2)3/h5,7H,1,4,6,8H2,2-3H3

> <InChI Key_QSARr>
UAHWPYUMFXYFJY-UHFFFAOYSA-N

> <Salt_Solvent>


> <Salt_Solvent_ID>
0

> <MPID>
100643

> <Tr_1_Tst_0>
1

> <Ready_Biodeg>
1.0

$$$$
Row624
  Mrv171c012251911052D          

  4  3  0  0  0  0            999 V2000
    2.1043   -0.5633    0.0000 C   0  0  0  0  0  0  0  0  0  0  0  0
    1.2793   -0.5633    0.0000 C   0  0  0  0  0  0  0  0  0  0  0  0
    0.8668    0.1512    0.0000 C   0  0  0  0  0  0  0  0  0  0  0  0
    0.0418    0.1512    0.0000 O   0  0  0  0  0  0  0  0  0  0  0  0
  1  2  1  0  0  0  0
  2  3  1  0  0  0  0
  3  4  2  0  0  0  0
M  END
> <ChemID>
100635

> <CAS>
123-38-6

> <Original_SMILES>
CCC=O

> <preferred_name>
Propanal

> <dsstox_substance_id>
DTXSID2021658

> <dsstox_compound_id>
DTXCID001658

> <qc_level>
DSSTox_Low

> <Canonical_QSARr>
CCC=O

> <InChI_Code_QSARr>
InChI=1S/C3H6O/c1-2-3-4/h3H,2H2,1H3

> <InChI Key_QSARr>
NBBJYMSMWIIQGU-UHFFFAOYSA-N

> <Salt_Solvent>


> <Salt_Solvent_ID>
0

> <MPID>
100644

> <Tr_1_Tst_0>
1

> <Ready_Biodeg>
1.0

$$$$
Row625
  Mrv171c012251911052D          

  8  7  0  0  0  0            999 V2000
    1.9832   -0.8639    0.0000 C   0  0  0  0  0  0  0  0  0  0  0  0
    1.5707   -0.1494    0.0000 C   0  0  0  0  0  0  0  0  0  0  0  0
    1.1582    0.5651    0.0000 O   0  0  0  0  0  0  0  0  0  0  0  0
    0.8562   -0.5619    0.0000 C   0  0  0  0  0  0  0  0  0  0  0  0
    2.2851    0.2631    0.0000 C   0  0  0  0  0  0  0  0  0  0  0  0
    1.5707   -1.5783    0.0000 C   0  0  0  0  0  0  0  0  0  0  0  0
    1.9832   -2.2928    0.0000 O   0  0  0  0  0  0  0  0  0  0  0  0
    0.7457   -1.5783    0.0000 C   0  0  0  0  0  0  0  0  0  0  0  0
  1  2  1  0  0  0  0
  2  3  1  0  0  0  0
  2  4  1  0  0  0  0
  2  5  1  0  0  0  0
  1  6  1  0  0  0  0
  6  7  2  0  0  0  0
  6  8  1  0  0  0  0
M  END
> <ChemID>
100636

> <CAS>
123-42-2

> <Original_SMILES>
CC(=O)CC(C)(C)O

> <preferred_name>
Diacetone alcohol

> <dsstox_substance_id>
DTXSID6024917

> <dsstox_compound_id>
DTXCID304917

> <qc_level>
DSSTox_Low

> <Canonical_QSARr>
CC(=O)CC(C)(C)O

> <InChI_Code_QSARr>
InChI=1S/C6H12O2/c1-5(7)4-6(2,3)8/h8H,4H2,1-3H3

> <InChI Key_QSARr>
SWXVUIWOUIDPGS-UHFFFAOYSA-N

> <Salt_Solvent>


> <Salt_Solvent_ID>
0

> <MPID>
100645

> <Tr_1_Tst_0>
0

> <Ready_Biodeg>
1.0

$$$$
Row626
  Mrv171c012251911052D          

  6  5  0  0  0  0            999 V2000
    1.2739   -1.1327    0.0000 C   0  0  0  0  0  0  0  0  0  0  0  0
    2.0989   -1.1327    0.0000 C   0  0  0  0  0  0  0  0  0  0  0  0
    2.5114   -1.8472    0.0000 C   0  0  0  0  0  0  0  0  0  0  0  0
    2.5114   -0.4182    0.0000 C   0  0  0  0  0  0  0  0  0  0  0  0
    0.8614   -0.4182    0.0000 C   0  0  0  0  0  0  0  0  0  0  0  0
    0.0364   -0.4182    0.0000 O   0  0  0  0  0  0  0  0  0  0  0  0
  1  2  1  0  0  0  0
  2  3  1  0  0  0  0
  2  4  1  0  0  0  0
  1  5  1  0  0  0  0
  5  6  1  0  0  0  0
M  END
> <ChemID>
100637

> <CAS>
123-51-3

> <Original_SMILES>
CC(C)CCO

> <preferred_name>
Isopentyl alcohol

> <dsstox_substance_id>
DTXSID3025469

> <dsstox_compound_id>
DTXCID705469

> <qc_level>
DSSTox_Low

> <Canonical_QSARr>
CC(C)CCO

> <InChI_Code_QSARr>
InChI=1S/C5H12O/c1-5(2)3-4-6/h5-6H,3-4H2,1-2H3

> <InChI Key_QSARr>
PHTQWCKDNZKARW-UHFFFAOYSA-N

> <Salt_Solvent>


> <Salt_Solvent_ID>
0

> <MPID>
100646

> <Tr_1_Tst_0>
1

> <Ready_Biodeg>
1.0

$$$$
Row627
  Mrv171c012251911052D          

  7  6  0  0  0  0            999 V2000
    1.9012    0.6622    0.0000 C   0  0  0  0  0  0  0  0  0  0  0  0
    1.4887   -0.0523    0.0000 C   0  0  0  0  0  0  0  0  0  0  0  0
    1.9012   -0.7668    0.0000 C   0  0  0  0  0  0  0  0  0  0  0  0
    1.4887   -1.4813    0.0000 C   0  0  0  0  0  0  0  0  0  0  0  0
    1.9012   -2.1957    0.0000 C   0  0  0  0  0  0  0  0  0  0  0  0
    0.6637   -1.4813    0.0000 O   0  0  0  0  0  0  0  0  0  0  0  0
    0.6637   -0.0523    0.0000 O   0  0  0  0  0  0  0  0  0  0  0  0
  1  2  1  0  0  0  0
  2  3  1  0  0  0  0
  3  4  1  0  0  0  0
  4  5  1  0  0  0  0
  4  6  2  0  0  0  0
  2  7  2  0  0  0  0
M  END
> <ChemID>
100638

> <CAS>
123-54-6

> <Original_SMILES>
CC(=O)CC(C)=O

> <preferred_name>
2,4-Pentanedione

> <dsstox_substance_id>
DTXSID4021979

> <dsstox_compound_id>
DTXCID601979

> <qc_level>
DSSTox_Low

> <Canonical_QSARr>
CC(=O)CC(C)=O

> <InChI_Code_QSARr>
InChI=1S/C5H8O2/c1-4(6)3-5(2)7/h3H2,1-2H3

> <InChI Key_QSARr>
YRKCREAYFQTBPV-UHFFFAOYSA-N

> <Salt_Solvent>


> <Salt_Solvent_ID>
0

> <MPID>
100647

> <Tr_1_Tst_0>
1

> <Ready_Biodeg>
1.0

$$$$
Row628
  Mrv171c012251911052D          

  9  9  0  0  0  0            999 V2000
    2.3657   -1.8423    0.0000 C   0  0  0  0  0  0  0  0  0  0  0  0
    2.3657   -1.0173    0.0000 O   0  0  0  0  0  0  0  0  0  0  0  0
    1.6512   -0.6048    0.0000 C   0  0  0  0  0  0  0  0  0  0  0  0
    1.6512    0.2202    0.0000 C   0  0  0  0  0  0  0  0  0  0  0  0
    0.9368   -1.0173    0.0000 O   0  0  0  0  0  0  0  0  0  0  0  0
    0.9368   -1.8423    0.0000 C   0  0  0  0  0  0  0  0  0  0  0  0
    0.2223   -2.2548    0.0000 C   0  0  0  0  0  0  0  0  0  0  0  0
    1.6512   -2.2548    0.0000 O   0  0  0  0  0  0  0  0  0  0  0  0
    3.0802   -2.2548    0.0000 C   0  0  0  0  0  0  0  0  0  0  0  0
  2  1  1  0  0  0  0
  3  2  1  0  0  0  0
  3  4  1  0  0  0  0
  5  3  1  0  0  0  0
  6  5  1  0  0  0  0
  6  7  1  0  0  0  0
  8  6  1  0  0  0  0
  1  8  1  0  0  0  0
  1  9  1  0  0  0  0
M  END
> <ChemID>
100639

> <CAS>
123-63-7

> <Original_SMILES>
CC1OC(C)OC(C)O1

> <preferred_name>
Paraldehyde

> <dsstox_substance_id>
DTXSID9023419

> <dsstox_compound_id>
DTXCID003419

> <qc_level>
DSSTox_Low

> <Canonical_QSARr>
CC1OC(C)OC(C)O1

> <InChI_Code_QSARr>
InChI=1S/C6H12O3/c1-4-7-5(2)9-6(3)8-4/h4-6H,1-3H3

> <InChI Key_QSARr>
SQYNKIJPMDEDEG-UHFFFAOYSA-N

> <Salt_Solvent>


> <Salt_Solvent_ID>
0

> <MPID>
100648

> <Tr_1_Tst_0>
1

> <Ready_Biodeg>
0.0

$$$$
Row629
  Mrv171c012251911052D          

  5  4  0  0  0  0            999 V2000
    2.5848   -1.1044    0.0000 C   0  0  0  0  0  0  0  0  0  0  0  0
    2.1723   -0.3899    0.0000 C   0  0  0  0  0  0  0  0  0  0  0  0
    1.3473   -0.3899    0.0000 C   0  0  0  0  0  0  0  0  0  0  0  0
    0.9348    0.3245    0.0000 C   0  0  0  0  0  0  0  0  0  0  0  0
    0.1098    0.3245    0.0000 O   0  0  0  0  0  0  0  0  0  0  0  0
  1  2  1  0  0  0  0
  2  3  1  0  0  0  0
  3  4  1  0  0  0  0
  4  5  2  0  0  0  0
M  END
> <ChemID>
100640

> <CAS>
123-72-8

> <Original_SMILES>
CCCC=O

> <preferred_name>
Butyraldehyde

> <dsstox_substance_id>
DTXSID8021513

> <dsstox_compound_id>
DTXCID601513

> <qc_level>
DSSTox_Low

> <Canonical_QSARr>
CCCC=O

> <InChI_Code_QSARr>
InChI=1S/C4H8O/c1-2-3-4-5/h4H,2-3H2,1H3

> <InChI Key_QSARr>
ZTQSAGDEMFDKMZ-UHFFFAOYSA-N

> <Salt_Solvent>


> <Salt_Solvent_ID>
0

> <MPID>
100649

> <Tr_1_Tst_0>
0

> <Ready_Biodeg>
1.0

$$$$
Row630
  Mrv171c012251911052D          

  8  7  0  0  0  0            999 V2000
   -0.1066   -0.4070    0.0000 C   0  0  0  0  0  0  0  0  0  0  0  0
    0.6078   -0.8195    0.0000 C   0  0  0  0  0  0  0  0  0  0  0  0
    1.3223   -0.4070    0.0000 O   0  0  0  0  0  0  0  0  0  0  0  0
    2.0368   -0.8195    0.0000 C   0  0  0  0  0  0  0  0  0  0  0  0
    2.7512   -0.4070    0.0000 C   0  0  0  0  0  0  0  0  0  0  0  0
    3.4657   -0.8195    0.0000 C   0  0  0  0  0  0  0  0  0  0  0  0
    4.1802   -0.4070    0.0000 C   0  0  0  0  0  0  0  0  0  0  0  0
    0.6078   -1.6445    0.0000 O   0  0  0  0  0  0  0  0  0  0  0  0
  1  2  1  0  0  0  0
  2  3  1  0  0  0  0
  3  4  1  0  0  0  0
  4  5  1  0  0  0  0
  5  6  1  0  0  0  0
  6  7  1  0  0  0  0
  2  8  2  0  0  0  0
M  END
> <ChemID>
100641

> <CAS>
123-86-4

> <Original_SMILES>
CCCCOC(C)=O

> <preferred_name>
Butyl acetate

> <dsstox_substance_id>
DTXSID3021982

> <dsstox_compound_id>
DTXCID101982

> <qc_level>
DSSTox_Low

> <Canonical_QSARr>
CCCCOC(C)=O

> <InChI_Code_QSARr>
InChI=1S/C6H12O2/c1-3-4-5-8-6(2)7/h3-5H2,1-2H3

> <InChI Key_QSARr>
DKPFZGUDAPQIHT-UHFFFAOYSA-N

> <Salt_Solvent>


> <Salt_Solvent_ID>
0

> <MPID>
100650

> <Tr_1_Tst_0>
1

> <Ready_Biodeg>
1.0

$$$$
Row631
  Mrv171c012251911052D          

  6  6  0  0  0  0            999 V2000
    1.4289   -0.4125    0.0000 C   0  0  0  0  0  0  0  0  0  0  0  0
    0.7145    0.0000    0.0000 O   0  0  0  0  0  0  0  0  0  0  0  0
    0.0000   -0.4125    0.0000 C   0  0  0  0  0  0  0  0  0  0  0  0
    0.0000   -1.2375    0.0000 C   0  0  0  0  0  0  0  0  0  0  0  0
    0.7145   -1.6500    0.0000 O   0  0  0  0  0  0  0  0  0  0  0  0
    1.4289   -1.2375    0.0000 C   0  0  0  0  0  0  0  0  0  0  0  0
  2  1  1  0  0  0  0
  3  2  1  0  0  0  0
  4  3  1  0  0  0  0
  5  4  1  0  0  0  0
  6  5  1  0  0  0  0
  1  6  1  0  0  0  0
M  END
> <ChemID>
100642

> <CAS>
123-91-1

> <Original_SMILES>
C1COCCO1

> <preferred_name>
1,4-Dioxane

> <dsstox_substance_id>
DTXSID4020533

> <dsstox_compound_id>
DTXCID00533

> <qc_level>
DSSTox_Low

> <Canonical_QSARr>
C1COCCO1

> <InChI_Code_QSARr>
InChI=1S/C4H8O2/c1-2-6-4-3-5-1/h1-4H2

> <InChI Key_QSARr>
RYHBNJHYFVUHQT-UHFFFAOYSA-N

> <Salt_Solvent>


> <Salt_Solvent_ID>
0

> <MPID>
100651

> <Tr_1_Tst_0>
1

> <Ready_Biodeg>
0.0

$$$$
Row632
  Mrv171c012251911052D          

 25 24  0  0  0  0            999 V2000
    3.4543   -1.2195    0.0000 C   0  0  0  0  0  0  0  0  0  0  0  0
    3.4543   -2.0445    0.0000 O   0  0  0  0  0  0  0  0  0  0  0  0
    2.7398   -0.8070    0.0000 O   0  0  0  0  0  0  0  0  0  0  0  0
    2.0253   -1.2195    0.0000 C   0  0  0  0  0  0  0  0  0  0  0  0
    1.3109   -0.8070    0.0000 C   0  0  0  0  0  0  0  0  0  0  0  0
    1.3109    0.0180    0.0000 O   0  0  0  0  0  0  0  0  0  0  0  0
    0.5964   -1.2195    0.0000 C   0  0  0  0  0  0  0  0  0  0  0  0
   -0.1181   -0.8070    0.0000 O   0  0  0  0  0  0  0  0  0  0  0  0
    4.1688   -0.8070    0.0000 C   0  0  0  0  0  0  0  0  0  0  0  0
    4.8832   -1.2195    0.0000 C   0  0  0  0  0  0  0  0  0  0  0  0
    5.5977   -0.8070    0.0000 C   0  0  0  0  0  0  0  0  0  0  0  0
    6.3122   -1.2195    0.0000 C   0  0  0  0  0  0  0  0  0  0  0  0
    7.0266   -0.8070    0.0000 C   0  0  0  0  0  0  0  0  0  0  0  0
    7.7411   -1.2195    0.0000 C   0  0  0  0  0  0  0  0  0  0  0  0
    8.4556   -0.8070    0.0000 C   0  0  0  0  0  0  0  0  0  0  0  0
    9.1701   -1.2195    0.0000 C   0  0  0  0  0  0  0  0  0  0  0  0
    9.8845   -0.8070    0.0000 C   0  0  0  0  0  0  0  0  0  0  0  0
   10.5990   -1.2195    0.0000 C   0  0  0  0  0  0  0  0  0  0  0  0
   11.3135   -0.8070    0.0000 C   0  0  0  0  0  0  0  0  0  0  0  0
   12.0279   -1.2195    0.0000 C   0  0  0  0  0  0  0  0  0  0  0  0
   12.7424   -0.8070    0.0000 C   0  0  0  0  0  0  0  0  0  0  0  0
   13.4569   -1.2195    0.0000 C   0  0  0  0  0  0  0  0  0  0  0  0
   14.1713   -0.8070    0.0000 C   0  0  0  0  0  0  0  0  0  0  0  0
   14.8858   -1.2195    0.0000 C   0  0  0  0  0  0  0  0  0  0  0  0
   15.6003   -0.8070    0.0000 C   0  0  0  0  0  0  0  0  0  0  0  0
  1  2  2  0  0  0  0
  1  3  1  0  0  0  0
  3  4  1  0  0  0  0
  4  5  1  0  0  0  0
  5  6  1  0  0  0  0
  5  7  1  0  0  0  0
  7  8  1  0  0  0  0
  1  9  1  0  0  0  0
  9 10  1  0  0  0  0
 10 11  1  0  0  0  0
 11 12  1  0  0  0  0
 12 13  1  0  0  0  0
 13 14  1  0  0  0  0
 14 15  1  0  0  0  0
 15 16  1  0  0  0  0
 16 17  1  0  0  0  0
 17 18  1  0  0  0  0
 18 19  1  0  0  0  0
 19 20  1  0  0  0  0
 20 21  1  0  0  0  0
 21 22  1  0  0  0  0
 22 23  1  0  0  0  0
 23 24  1  0  0  0  0
 24 25  1  0  0  0  0
M  END
> <ChemID>
100643

> <CAS>
123-94-4

> <Original_SMILES>
CCCCCCCCCCCCCCCCCC(=O)OCC(O)CO

> <preferred_name>
1-Stearoyl-rac-glycerol

> <dsstox_substance_id>
DTXSID7029160

> <dsstox_compound_id>
DTXCID909160

> <qc_level>
DSSTox_Low

> <Canonical_QSARr>
CCCCCCCCCCCCCCCCCC(=O)OCC(O)CO

> <InChI_Code_QSARr>
InChI=1S/C21H42O4/c1-2-3-4-5-6-7-8-9-10-11-12-13-14-15-16-17-21(24)25-19-20(23)18-22/h20,22-23H,2-19H2,1H3

> <InChI Key_QSARr>
VBICKXHEKHSIBG-UHFFFAOYSA-N

> <Salt_Solvent>


> <Salt_Solvent_ID>
0

> <MPID>
100652

> <Tr_1_Tst_0>
1

> <Ready_Biodeg>
1.0

$$$$
Row633
  Mrv171c012251911052D          

 10  9  0  0  0  0            999 V2000
    0.0017   -1.2372    0.0000 O   0  0  0  0  0  0  0  0  0  0  0  0
    0.7162   -0.8247    0.0000 C   0  0  0  0  0  0  0  0  0  0  0  0
    0.7162    0.0003    0.0000 O   0  0  0  0  0  0  0  0  0  0  0  0
    1.4307   -1.2372    0.0000 C   0  0  0  0  0  0  0  0  0  0  0  0
    2.1452   -0.8247    0.0000 C   0  0  0  0  0  0  0  0  0  0  0  0
    2.8596   -1.2372    0.0000 C   0  0  0  0  0  0  0  0  0  0  0  0
    3.5741   -0.8247    0.0000 C   0  0  0  0  0  0  0  0  0  0  0  0
    4.2886   -1.2372    0.0000 C   0  0  0  0  0  0  0  0  0  0  0  0
    5.0030   -0.8247    0.0000 O   0  0  0  0  0  0  0  0  0  0  0  0
    4.2886   -2.0622    0.0000 O   0  0  0  0  0  0  0  0  0  0  0  0
  1  2  1  0  0  0  0
  2  3  2  0  0  0  0
  2  4  1  0  0  0  0
  4  5  1  0  0  0  0
  5  6  1  0  0  0  0
  6  7  1  0  0  0  0
  7  8  1  0  0  0  0
  8  9  2  0  0  0  0
  8 10  1  0  0  0  0
M  END
> <ChemID>
100644

> <CAS>
124-04-9

> <Original_SMILES>
OC(=O)CCCCC(O)=O

> <preferred_name>
Hexanedioic acid

> <dsstox_substance_id>
DTXSID7021605

> <dsstox_compound_id>
DTXCID301605

> <qc_level>
DSSTox_High

> <Canonical_QSARr>
OC(=O)CCCCC(O)=O

> <InChI_Code_QSARr>
InChI=1S/C6H10O4/c7-5(8)3-1-2-4-6(9)10/h1-4H2,(H,7,8)(H,9,10)

> <InChI Key_QSARr>
WNLRTRBMVRJNCN-UHFFFAOYSA-N

> <Salt_Solvent>


> <Salt_Solvent_ID>
0

> <MPID>
100653

> <Tr_1_Tst_0>
0

> <Ready_Biodeg>
1.0

$$$$
Row634
  Mrv171c012251911052D          

 10  9  0  0  0  0            999 V2000
    0.0016   -0.6634    0.0000 C   0  0  0  0  0  0  0  0  0  0  0  0
    0.7160   -1.0759    0.0000 C   0  0  0  0  0  0  0  0  0  0  0  0
    1.4305   -0.6634    0.0000 C   0  0  0  0  0  0  0  0  0  0  0  0
    2.1450   -1.0759    0.0000 C   0  0  0  0  0  0  0  0  0  0  0  0
    2.8595   -0.6634    0.0000 C   0  0  0  0  0  0  0  0  0  0  0  0
    3.5739   -1.0759    0.0000 C   0  0  0  0  0  0  0  0  0  0  0  0
    4.2884   -0.6634    0.0000 C   0  0  0  0  0  0  0  0  0  0  0  0
    5.0029   -1.0759    0.0000 C   0  0  0  0  0  0  0  0  0  0  0  0
    5.7173   -0.6634    0.0000 O   0  0  0  0  0  0  0  0  0  0  0  0
    5.0029   -1.9009    0.0000 O   0  0  0  0  0  0  0  0  0  0  0  0
  1  2  1  0  0  0  0
  2  3  1  0  0  0  0
  3  4  1  0  0  0  0
  4  5  1  0  0  0  0
  5  6  1  0  0  0  0
  6  7  1  0  0  0  0
  7  8  1  0  0  0  0
  8  9  2  0  0  0  0
  8 10  1  0  0  0  0
M  END
> <ChemID>
100645

> <CAS>
124-07-2

> <Original_SMILES>
CCCCCCCC(O)=O

> <preferred_name>
Octanoic acid

> <dsstox_substance_id>
DTXSID3021645

> <dsstox_compound_id>
DTXCID501645

> <qc_level>
DSSTox_High

> <Canonical_QSARr>
CCCCCCCC(O)=O

> <InChI_Code_QSARr>
InChI=1S/C8H16O2/c1-2-3-4-5-6-7-8(9)10/h2-7H2,1H3,(H,9,10)

> <InChI Key_QSARr>
WWZKQHOCKIZLMA-UHFFFAOYSA-N

> <Salt_Solvent>


> <Salt_Solvent_ID>
0

> <MPID>
100654

> <Tr_1_Tst_0>
1

> <Ready_Biodeg>
1.0

$$$$
Row635
  Mrv171c012251911052D          

  8  7  0  0  0  0            999 V2000
    2.8597   -0.4115    0.0000 C   0  0  0  0  0  0  0  0  0  0  0  0
    2.1452    0.0010    0.0000 C   0  0  0  0  0  0  0  0  0  0  0  0
    1.4308   -0.4115    0.0000 C   0  0  0  0  0  0  0  0  0  0  0  0
    0.7163    0.0010    0.0000 C   0  0  0  0  0  0  0  0  0  0  0  0
    0.0018   -0.4115    0.0000 N   0  0  0  0  0  0  0  0  0  0  0  0
    3.5742    0.0010    0.0000 C   0  0  0  0  0  0  0  0  0  0  0  0
    4.2887   -0.4115    0.0000 C   0  0  0  0  0  0  0  0  0  0  0  0
    5.0031    0.0010    0.0000 N   0  0  0  0  0  0  0  0  0  0  0  0
  1  2  1  0  0  0  0
  2  3  1  0  0  0  0
  3  4  1  0  0  0  0
  4  5  1  0  0  0  0
  1  6  1  0  0  0  0
  6  7  1  0  0  0  0
  7  8  1  0  0  0  0
M  END
> <ChemID>
100646

> <CAS>
124-09-4

> <Original_SMILES>
NCCCCCCN

> <preferred_name>
1,6-Hexanediamine

> <dsstox_substance_id>
DTXSID5024922

> <dsstox_compound_id>
DTXCID604922

> <qc_level>
DSSTox_Low

> <Canonical_QSARr>
NCCCCCCN

> <InChI_Code_QSARr>
InChI=1S/C6H16N2/c7-5-3-1-2-4-6-8/h1-8H2

> <InChI Key_QSARr>
NAQMVNRVTILPCV-UHFFFAOYSA-N

> <Salt_Solvent>


> <Salt_Solvent_ID>
0

> <MPID>
100655

> <Tr_1_Tst_0>
1

> <Ready_Biodeg>
1.0

$$$$
Row636
  Mrv171c012251911052D          

  9  8  0  0  0  0            999 V2000
    5.8558    2.5559    0.0000 C   0  0  0  0  0  0  0  0  0  0  0  0
    5.1414    2.1434    0.0000 C   0  0  0  0  0  0  0  0  0  0  0  0
    4.4269    2.5559    0.0000 C   0  0  0  0  0  0  0  0  0  0  0  0
    3.7124    2.1434    0.0000 C   0  0  0  0  0  0  0  0  0  0  0  0
    2.9980    2.5559    0.0000 C   0  0  0  0  0  0  0  0  0  0  0  0
    6.5703    2.1434    0.0000 C   0  0  0  0  0  0  0  0  0  0  0  0
    7.2848    2.5559    0.0000 C   0  0  0  0  0  0  0  0  0  0  0  0
    7.9992    2.1434    0.0000 C   0  0  0  0  0  0  0  0  0  0  0  0
    8.7137    2.5559    0.0000 C   0  0  0  0  0  0  0  0  0  0  0  0
  1  2  1  0  0  0  0
  2  3  1  0  0  0  0
  3  4  1  0  0  0  0
  4  5  2  0  0  0  0
  1  6  1  0  0  0  0
  6  7  1  0  0  0  0
  7  8  1  0  0  0  0
  8  9  1  0  0  0  0
M  END
> <ChemID>
100647

> <CAS>
124-11-8

> <Original_SMILES>
CCCCCCCC=C

> <preferred_name>
1-Nonene

> <dsstox_substance_id>
DTXSID2059562

> <dsstox_compound_id>
DTXCID3033806

> <qc_level>
Public_High

> <Canonical_QSARr>
CCCCCCCC=C

> <InChI_Code_QSARr>
InChI=1S/C9H18/c1-3-5-7-9-8-6-4-2/h3H,1,4-9H2,2H3

> <InChI Key_QSARr>
JRZJOMJEPLMPRA-UHFFFAOYSA-N

> <Salt_Solvent>


> <Salt_Solvent_ID>
0

> <MPID>
100656

> <Tr_1_Tst_0>
1

> <Ready_Biodeg>
0.0

$$$$
Row637
  Mrv171c012251911052D          

 14 13  0  0  0  0            999 V2000
    2.1220   -1.1121    0.0000 C   0  0  0  0  0  0  0  0  0  0  0  0
    1.4076   -0.6996    0.0000 O   0  0  0  0  0  0  0  0  0  0  0  0
    0.6931   -1.1121    0.0000 C   0  0  0  0  0  0  0  0  0  0  0  0
   -0.0214   -0.6996    0.0000 C   0  0  0  0  0  0  0  0  0  0  0  0
    0.6931   -1.9371    0.0000 O   0  0  0  0  0  0  0  0  0  0  0  0
    2.8365   -0.6996    0.0000 C   0  0  0  0  0  0  0  0  0  0  0  0
    3.5510   -1.1121    0.0000 O   0  0  0  0  0  0  0  0  0  0  0  0
    4.2654   -0.6996    0.0000 C   0  0  0  0  0  0  0  0  0  0  0  0
    4.9799   -1.1121    0.0000 C   0  0  0  0  0  0  0  0  0  0  0  0
    5.6944   -0.6996    0.0000 O   0  0  0  0  0  0  0  0  0  0  0  0
    6.4089   -1.1121    0.0000 C   0  0  0  0  0  0  0  0  0  0  0  0
    7.1233   -0.6996    0.0000 C   0  0  0  0  0  0  0  0  0  0  0  0
    7.8378   -1.1121    0.0000 C   0  0  0  0  0  0  0  0  0  0  0  0
    8.5523   -0.6996    0.0000 C   0  0  0  0  0  0  0  0  0  0  0  0
  1  2  1  0  0  0  0
  2  3  1  0  0  0  0
  3  4  1  0  0  0  0
  3  5  2  0  0  0  0
  1  6  1  0  0  0  0
  6  7  1  0  0  0  0
  7  8  1  0  0  0  0
  8  9  1  0  0  0  0
  9 10  1  0  0  0  0
 10 11  1  0  0  0  0
 11 12  1  0  0  0  0
 12 13  1  0  0  0  0
 13 14  1  0  0  0  0
M  END
> <ChemID>
100648

> <CAS>
124-17-4

> <Original_SMILES>
CCCCOCCOCCOC(C)=O

> <preferred_name>
2-(2-Butoxyethoxy)ethyl acetate

> <dsstox_substance_id>
DTXSID9027021

> <dsstox_compound_id>
DTXCID707021

> <qc_level>
DSSTox_Low

> <Canonical_QSARr>
CCCCOCCOCCOC(C)=O

> <InChI_Code_QSARr>
InChI=1S/C10H20O4/c1-3-4-5-12-6-7-13-8-9-14-10(2)11/h3-9H2,1-2H3

> <InChI Key_QSARr>
VXQBJTKSVGFQOL-UHFFFAOYSA-N

> <Salt_Solvent>


> <Salt_Solvent_ID>
0

> <MPID>
100657

> <Tr_1_Tst_0>
0

> <Ready_Biodeg>
1.0

$$$$
Row638
  Mrv171c012251911052D          

 10  9  0  0  0  0            999 V2000
    0.7189    0.0002    0.0000 C   0  0  0  0  0  0  0  0  0  0  0  0
    0.0045   -0.4123    0.0000 C   0  0  0  0  0  0  0  0  0  0  0  0
    1.4334   -0.4123    0.0000 C   0  0  0  0  0  0  0  0  0  0  0  0
    2.1479    0.0002    0.0000 C   0  0  0  0  0  0  0  0  0  0  0  0
    2.8624   -0.4123    0.0000 C   0  0  0  0  0  0  0  0  0  0  0  0
    3.5768    0.0002    0.0000 C   0  0  0  0  0  0  0  0  0  0  0  0
    4.2913   -0.4123    0.0000 C   0  0  0  0  0  0  0  0  0  0  0  0
    5.0058    0.0002    0.0000 C   0  0  0  0  0  0  0  0  0  0  0  0
    5.7202   -0.4123    0.0000 C   0  0  0  0  0  0  0  0  0  0  0  0
    6.4347    0.0002    0.0000 C   0  0  0  0  0  0  0  0  0  0  0  0
  1  2  1  0  0  0  0
  1  3  1  0  0  0  0
  3  4  1  0  0  0  0
  4  5  1  0  0  0  0
  5  6  1  0  0  0  0
  6  7  1  0  0  0  0
  7  8  1  0  0  0  0
  8  9  1  0  0  0  0
  9 10  1  0  0  0  0
M  END
> <ChemID>
100649

> <CAS>
124-18-5

> <Original_SMILES>
CCCCCCCCCC

> <preferred_name>
Decane

> <dsstox_substance_id>
DTXSID6024913

> <dsstox_compound_id>
DTXCID704913

> <qc_level>
DSSTox_Low

> <Canonical_QSARr>
CCCCCCCCCC

> <InChI_Code_QSARr>
InChI=1S/C10H22/c1-3-5-7-9-10-8-6-4-2/h3-10H2,1-2H3

> <InChI Key_QSARr>
DIOQZVSQGTUSAI-UHFFFAOYSA-N

> <Salt_Solvent>


> <Salt_Solvent_ID>
0

> <MPID>
100658

> <Tr_1_Tst_0>
1

> <Ready_Biodeg>
1.0

$$$$
Row639
  Mrv171c012251911052D          

  3  2  0  0  0  0            999 V2000
   -0.0269   -0.3388    0.0000 C   0  0  0  0  0  0  0  0  0  0  0  0
    0.6876   -0.7513    0.0000 N   0  0  0  0  0  0  0  0  0  0  0  0
    1.4020   -0.3388    0.0000 C   0  0  0  0  0  0  0  0  0  0  0  0
  1  2  1  0  0  0  0
  2  3  1  0  0  0  0
M  END
> <ChemID>
100650

> <CAS>
124-40-3

> <Original_SMILES>
CNC

> <preferred_name>
Dimethylamine

> <dsstox_substance_id>
DTXSID5024057

> <dsstox_compound_id>
DTXCID704057

> <qc_level>
DSSTox_High

> <Canonical_QSARr>
CNC

> <InChI_Code_QSARr>
InChI=1S/C2H7N/c1-3-2/h3H,1-2H3

> <InChI Key_QSARr>
ROSDSFDQCJNGOL-UHFFFAOYSA-N

> <Salt_Solvent>


> <Salt_Solvent_ID>
0

> <MPID>
100659

> <Tr_1_Tst_0>
1

> <Ready_Biodeg>
1.0

$$$$
Row640
  Mrv171c012251911052D          

  4  3  0  0  0  0            999 V2000
    1.2371    0.0002    0.0000 Cl  0  0  0  0  0  0  0  0  0  0  0  0
    0.8246   -0.7143    0.0000 C   0  0  0  0  0  0  0  0  0  0  0  0
    1.2371   -1.4287    0.0000 Br  0  0  0  0  0  0  0  0  0  0  0  0
   -0.0004   -0.7143    0.0000 Br  0  0  0  0  0  0  0  0  0  0  0  0
  1  2  1  0  0  0  0
  2  3  1  0  0  0  0
  2  4  1  0  0  0  0
M  END
> <ChemID>
100651

> <CAS>
124-48-1

> <Original_SMILES>
ClC(Br)Br

> <preferred_name>
Chlorodibromomethane

> <dsstox_substance_id>
DTXSID1020300

> <dsstox_compound_id>
DTXCID30300

> <qc_level>
DSSTox_Low

> <Canonical_QSARr>
ClC(Br)Br

> <InChI_Code_QSARr>
InChI=1S/CHBr2Cl/c2-1(3)4/h1H

> <InChI Key_QSARr>
GATVIKZLVQHOMN-UHFFFAOYSA-N

> <Salt_Solvent>


> <Salt_Solvent_ID>
0

> <MPID>
100660

> <Tr_1_Tst_0>
1

> <Ready_Biodeg>
0.0

$$$$
Row641
  Mrv171c012251911052D          

 10  9  0  0  0  0            999 V2000
    1.8848   -1.9141    0.0000 C   0  0  0  0  0  0  0  0  0  0  0  0
    2.5993   -1.5016    0.0000 O   0  0  0  0  0  0  0  0  0  0  0  0
    1.1703   -1.5016    0.0000 C   0  0  0  0  0  0  0  0  0  0  0  0
    0.4559   -1.0891    0.0000 N   0  3  0  0  0  0  0  0  0  0  0  0
   -0.2586   -1.5016    0.0000 O   0  0  0  0  0  0  0  0  0  0  0  0
    0.4559   -0.2641    0.0000 O   0  5  0  0  0  0  0  0  0  0  0  0
    1.5828   -0.7871    0.0000 C   0  0  0  0  0  0  0  0  0  0  0  0
    1.1703   -0.0726    0.0000 O   0  0  0  0  0  0  0  0  0  0  0  0
    0.7578   -2.2160    0.0000 C   0  0  0  0  0  0  0  0  0  0  0  0
   -0.0672   -2.2160    0.0000 O   0  0  0  0  0  0  0  0  0  0  0  0
  1  2  1  0  0  0  0
  1  3  1  0  0  0  0
  3  4  1  0  0  0  0
  4  5  2  0  0  0  0
  4  6  1  0  0  0  0
  3  7  1  0  0  0  0
  7  8  1  0  0  0  0
  3  9  1  0  0  0  0
  9 10  1  0  0  0  0
M  CHG  2   4   1   6  -1
M  END
> <ChemID>
100652

> <CAS>
126-11-4

> <Original_SMILES>
[O-][N+](=O)C(CO)(CO)CO

> <preferred_name>
2-(Hydroxymethyl)-2-nitro-1,3-propanediol

> <dsstox_substance_id>
DTXSID8027034

> <dsstox_compound_id>
DTXCID207034

> <qc_level>
DSSTox_Low

> <Canonical_QSARr>
[O-][N+](=O)C(CO)(CO)CO

> <InChI_Code_QSARr>
InChI=1S/C4H9NO5/c6-1-4(2-7,3-8)5(9)10/h6-8H,1-3H2

> <InChI Key_QSARr>
OLQJQHSAWMFDJE-UHFFFAOYSA-N

> <Salt_Solvent>


> <Salt_Solvent_ID>
0

> <MPID>
100661

> <Tr_1_Tst_0>
0

> <Ready_Biodeg>
1.0

$$$$
Row642
  Mrv171c012251911052D          

  7  6  0  0  0  0            999 V2000
    1.6714   -1.3255    0.0000 C   0  0  0  0  0  0  0  0  0  0  0  0
    2.4964   -1.3255    0.0000 O   0  0  0  0  0  0  0  0  0  0  0  0
    1.2589   -0.6111    0.0000 C   0  0  0  0  0  0  0  0  0  0  0  0
    1.9734   -0.1986    0.0000 C   0  0  0  0  0  0  0  0  0  0  0  0
    0.5445   -1.0236    0.0000 C   0  0  0  0  0  0  0  0  0  0  0  0
    0.8464    0.1034    0.0000 C   0  0  0  0  0  0  0  0  0  0  0  0
    0.0214    0.1034    0.0000 O   0  0  0  0  0  0  0  0  0  0  0  0
  1  2  1  0  0  0  0
  1  3  1  0  0  0  0
  3  4  1  0  0  0  0
  3  5  1  0  0  0  0
  3  6  1  0  0  0  0
  6  7  1  0  0  0  0
M  END
> <ChemID>
100653

> <CAS>
126-30-7

> <Original_SMILES>
CC(C)(CO)CO

> <preferred_name>
2,2-Dimethylpropane-1,3-diol

> <dsstox_substance_id>
DTXSID8027036

> <dsstox_compound_id>
DTXCID007036

> <qc_level>
DSSTox_Low

> <Canonical_QSARr>
CC(C)(CO)CO

> <InChI_Code_QSARr>
InChI=1S/C5H12O2/c1-5(2,3-6)4-7/h6-7H,3-4H2,1-2H3

> <InChI Key_QSARr>
SLCVBVWXLSEKPL-UHFFFAOYSA-N

> <Salt_Solvent>


> <Salt_Solvent_ID>
0

> <MPID>
100662

> <Tr_1_Tst_0>
1

> <Ready_Biodeg>
0.0

$$$$
Row643
  Mrv171c012251911052D          

  7  7  0  0  0  0            999 V2000
    0.6919   -0.7465    0.0000 S   0  0  0  0  0  0  0  0  0  0  0  0
    0.1399   -0.1334    0.0000 O   0  0  0  0  0  0  0  0  0  0  0  0
    1.2439   -0.1334    0.0000 O   0  0  0  0  0  0  0  0  0  0  0  0
    0.0245   -1.2314    0.0000 C   0  0  0  0  0  0  0  0  0  0  0  0
    0.2794   -2.0161    0.0000 C   0  0  0  0  0  0  0  0  0  0  0  0
    1.1044   -2.0161    0.0000 C   0  0  0  0  0  0  0  0  0  0  0  0
    1.3593   -1.2314    0.0000 C   0  0  0  0  0  0  0  0  0  0  0  0
  1  2  2  0  0  0  0
  1  3  2  0  0  0  0
  4  1  1  0  0  0  0
  5  4  1  0  0  0  0
  6  5  1  0  0  0  0
  7  6  1  0  0  0  0
  1  7  1  0  0  0  0
M  END
> <ChemID>
100654

> <CAS>
126-33-0

> <Original_SMILES>
O=S1(=O)CCCC1

> <preferred_name>
Sulfolane

> <dsstox_substance_id>
DTXSID3027037

> <dsstox_compound_id>
DTXCID407037

> <qc_level>
DSSTox_Low

> <Canonical_QSARr>
O=S1(=O)CCCC1

> <InChI_Code_QSARr>
InChI=1S/C4H8O2S/c5-7(6)3-1-2-4-7/h1-4H2

> <InChI Key_QSARr>
HXJUTPCZVOIRIF-UHFFFAOYSA-N

> <Salt_Solvent>


> <Salt_Solvent_ID>
0

> <MPID>
100663

> <Tr_1_Tst_0>
1

> <Ready_Biodeg>
0.0

$$$$
Row644
  Mrv171c012251911052D          

 12 12  0  0  0  0            999 V2000
    2.5316   -2.2797    0.0000 C   0  0  0  0  0  0  0  0  0  0  0  0
    2.5316   -1.4547    0.0000 C   0  0  0  0  0  0  0  0  0  0  0  0
    1.8171   -1.0422    0.0000 C   0  0  0  0  0  0  0  0  0  0  0  0
    2.3474   -0.4102    0.0000 C   0  0  0  0  0  0  0  0  0  0  0  0
    2.8777    0.2218    0.0000 C   0  0  0  0  0  0  0  0  0  0  0  0
    1.2868   -0.4102    0.0000 O   0  0  0  0  0  0  0  0  0  0  0  0
    1.5690    0.3651    0.0000 C   0  0  0  0  0  0  0  0  0  0  0  0
    1.0387    0.9970    0.0000 O   0  0  0  0  0  0  0  0  0  0  0  0
    2.3815    0.5083    0.0000 N   0  0  0  0  0  0  0  0  0  0  0  0
    1.1027   -1.4547    0.0000 C   0  0  0  0  0  0  0  0  0  0  0  0
    1.1027   -2.2797    0.0000 C   0  0  0  0  0  0  0  0  0  0  0  0
    1.8171   -2.6922    0.0000 C   0  0  0  0  0  0  0  0  0  0  0  0
  2  1  1  0  0  0  0
  3  2  1  0  0  0  0
  3  4  1  0  0  0  0
  4  5  3  0  0  0  0
  3  6  1  0  0  0  0
  6  7  1  0  0  0  0
  7  8  2  0  0  0  0
  7  9  1  0  0  0  0
 10  3  1  0  0  0  0
 11 10  1  0  0  0  0
 12 11  1  0  0  0  0
  1 12  1  0  0  0  0
M  END
> <ChemID>
100655

> <CAS>
126-52-3

> <Original_SMILES>
C#CC1(CCCCC1)OC(N)=O

> <preferred_name>
Ethinamate

> <dsstox_substance_id>
DTXSID7023013

> <dsstox_compound_id>
DTXCID803013

> <qc_level>
DSSTox_Low

> <Canonical_QSARr>
C#CC1(CCCCC1)OC(N)=O

> <InChI_Code_QSARr>
InChI=1S/C9H13NO2/c1-2-9(12-8(10)11)6-4-3-5-7-9/h1H,3-7H2,(H2,10,11)

> <InChI Key_QSARr>
GXRZIMHKGDIBEW-UHFFFAOYSA-N

> <Salt_Solvent>


> <Salt_Solvent_ID>
0

> <MPID>
100664

> <Tr_1_Tst_0>
1

> <Ready_Biodeg>
1.0

$$$$
Row645
  Mrv171c012251911052D          

 20 19  0  0  0  0            999 V2000
    1.8832   -3.7510    0.0000 O   0  0  0  0  0  0  0  0  0  0  0  0
    1.8832   -2.9260    0.0000 P   0  0  0  0  0  0  0  0  0  0  0  0
    2.7082   -2.9260    0.0000 O   0  0  0  0  0  0  0  0  0  0  0  0
    3.1207   -3.6404    0.0000 C   0  0  0  0  0  0  0  0  0  0  0  0
    3.9457   -3.6404    0.0000 C   0  0  0  0  0  0  0  0  0  0  0  0
    4.3582   -2.9260    0.0000 Br  0  0  0  0  0  0  0  0  0  0  0  0
    4.3582   -4.3549    0.0000 C   0  0  0  0  0  0  0  0  0  0  0  0
    5.1832   -4.3549    0.0000 Br  0  0  0  0  0  0  0  0  0  0  0  0
    1.0582   -2.9260    0.0000 O   0  0  0  0  0  0  0  0  0  0  0  0
    0.6457   -2.2115    0.0000 C   0  0  0  0  0  0  0  0  0  0  0  0
   -0.1793   -2.2115    0.0000 C   0  0  0  0  0  0  0  0  0  0  0  0
   -0.5918   -2.9260    0.0000 Br  0  0  0  0  0  0  0  0  0  0  0  0
   -0.5918   -1.4970    0.0000 C   0  0  0  0  0  0  0  0  0  0  0  0
   -1.4168   -1.4970    0.0000 Br  0  0  0  0  0  0  0  0  0  0  0  0
    1.8832   -2.1010    0.0000 O   0  0  0  0  0  0  0  0  0  0  0  0
    2.5977   -1.6885    0.0000 C   0  0  0  0  0  0  0  0  0  0  0  0
    3.3121   -2.1010    0.0000 C   0  0  0  0  0  0  0  0  0  0  0  0
    3.3121   -2.9260    0.0000 Br  0  0  0  0  0  0  0  0  0  0  0  0
    4.0266   -1.6885    0.0000 C   0  0  0  0  0  0  0  0  0  0  0  0
    4.7411   -2.1010    0.0000 Br  0  0  0  0  0  0  0  0  0  0  0  0
  1  2  2  0  0  0  0
  2  3  1  0  0  0  0
  3  4  1  0  0  0  0
  4  5  1  0  0  0  0
  5  6  1  0  0  0  0
  5  7  1  0  0  0  0
  7  8  1  0  0  0  0
  2  9  1  0  0  0  0
  9 10  1  0  0  0  0
 10 11  1  0  0  0  0
 11 12  1  0  0  0  0
 11 13  1  0  0  0  0
 13 14  1  0  0  0  0
  2 15  1  0  0  0  0
 15 16  1  0  0  0  0
 16 17  1  0  0  0  0
 17 18  1  0  0  0  0
 17 19  1  0  0  0  0
 19 20  1  0  0  0  0
M  END
> <ChemID>
100656

> <CAS>
126-72-7

> <Original_SMILES>
O=P(OCC(Br)CBr)(OCC(Br)CBr)OCC(Br)CBr

> <preferred_name>
Tris(2,3-dibromopropyl) phosphate

> <dsstox_substance_id>
DTXSID5021413

> <dsstox_compound_id>
DTXCID401413

> <qc_level>
DSSTox_Low

> <Canonical_QSARr>
O=P(OCC(Br)CBr)(OCC(Br)CBr)OCC(Br)CBr

> <InChI_Code_QSARr>
InChI=1S/C9H15Br6O4P/c10-1-7(13)4-17-20(16,18-5-8(14)2-11)19-6-9(15)3-12/h7-9H,1-6H2

> <InChI Key_QSARr>
PQYJRMFWJJONBO-UHFFFAOYSA-N

> <Salt_Solvent>


> <Salt_Solvent_ID>
0

> <MPID>
100665

> <Tr_1_Tst_0>
0

> <Ready_Biodeg>
1.0

$$$$
Row646
  Mrv171c012251911052D          

 17 16  0  0  0  0            999 V2000
    0.1316   -3.5849    0.0000 C   0  0  0  0  0  0  0  0  0  0  0  0
    0.5441   -2.8704    0.0000 C   0  0  0  0  0  0  0  0  0  0  0  0
    1.3691   -2.8704    0.0000 C   0  0  0  0  0  0  0  0  0  0  0  0
    1.7816   -2.1559    0.0000 C   0  0  0  0  0  0  0  0  0  0  0  0
    2.6066   -2.1559    0.0000 O   0  0  0  0  0  0  0  0  0  0  0  0
    3.0191   -1.4415    0.0000 P   0  0  0  0  0  0  0  0  0  0  0  0
    3.4316   -0.7270    0.0000 O   0  0  0  0  0  0  0  0  0  0  0  0
    4.2566   -0.7270    0.0000 C   0  0  0  0  0  0  0  0  0  0  0  0
    4.6691   -0.0125    0.0000 C   0  0  0  0  0  0  0  0  0  0  0  0
    5.4941   -0.0125    0.0000 C   0  0  0  0  0  0  0  0  0  0  0  0
    5.9066    0.7019    0.0000 C   0  0  0  0  0  0  0  0  0  0  0  0
    3.7336   -1.8540    0.0000 O   0  0  0  0  0  0  0  0  0  0  0  0
    4.4480   -1.4415    0.0000 C   0  0  0  0  0  0  0  0  0  0  0  0
    5.1625   -1.8540    0.0000 C   0  0  0  0  0  0  0  0  0  0  0  0
    5.8770   -1.4415    0.0000 C   0  0  0  0  0  0  0  0  0  0  0  0
    6.5914   -1.8540    0.0000 C   0  0  0  0  0  0  0  0  0  0  0  0
    2.3046   -1.0290    0.0000 O   0  0  0  0  0  0  0  0  0  0  0  0
  1  2  1  0  0  0  0
  2  3  1  0  0  0  0
  3  4  1  0  0  0  0
  4  5  1  0  0  0  0
  5  6  1  0  0  0  0
  6  7  1  0  0  0  0
  7  8  1  0  0  0  0
  8  9  1  0  0  0  0
  9 10  1  0  0  0  0
 10 11  1  0  0  0  0
  6 12  1  0  0  0  0
 12 13  1  0  0  0  0
 13 14  1  0  0  0  0
 14 15  1  0  0  0  0
 15 16  1  0  0  0  0
  6 17  2  0  0  0  0
M  END
> <ChemID>
100657

> <CAS>
126-73-8

> <Original_SMILES>
CCCCOP(=O)(OCCCC)OCCCC

> <preferred_name>
Tributyl phosphate

> <dsstox_substance_id>
DTXSID3021986

> <dsstox_compound_id>
DTXCID701986

> <qc_level>
DSSTox_Low

> <Canonical_QSARr>
CCCCOP(=O)(OCCCC)OCCCC

> <InChI_Code_QSARr>
InChI=1S/C12H27O4P/c1-4-7-10-14-17(13,15-11-8-5-2)16-12-9-6-3/h4-12H2,1-3H3

> <InChI Key_QSARr>
STCOOQWBFONSKY-UHFFFAOYSA-N

> <Salt_Solvent>


> <Salt_Solvent_ID>
0

> <MPID>
100666

> <Tr_1_Tst_0>
1

> <Ready_Biodeg>
0.0

$$$$
Row647
  Mrv171c012251911052D          

  4  3  0  0  0  0            999 V2000
    0.4125    0.7145    0.0000 O   0  0  0  0  0  0  0  0  0  0  0  0
    0.0000   -0.0000    0.0000 C   0  0  0  0  0  0  0  0  0  0  0  0
    0.4125   -0.7145    0.0000 C   0  0  0  0  0  0  0  0  0  0  0  0
   -0.8250   -0.0000    0.0000 O   0  0  0  0  0  0  0  0  0  0  0  0
  1  2  1  0  0  0  0
  2  3  1  0  0  0  0
  2  4  2  0  0  0  0
M  END
> <ChemID>
100658

> <CAS>
127-09-3

> <Original_SMILES>
[Na+].CC([O-])=O

> <preferred_name>
Sodium acetate

> <dsstox_substance_id>
DTXSID2027044

> <dsstox_compound_id>
DTXCID507044

> <qc_level>
DSSTox_Low

> <Canonical_QSARr>
CC(O)=O

> <InChI_Code_QSARr>
InChI=1S/C2H4O2/c1-2(3)4/h1H3,(H,3,4)

> <InChI Key_QSARr>
QTBSBXVTEAMEQO-UHFFFAOYSA-N

> <Salt_Solvent>
[Na+]

> <Salt_Solvent_ID>
110

> <MPID>
100667

> <Tr_1_Tst_0>
1

> <Ready_Biodeg>
1.0

$$$$
Row648
  Mrv171c012251911052D          

  6  5  0  0  0  0            999 V2000
    1.8554   -1.7855    0.0000 Cl  0  0  0  0  0  0  0  0  0  0  0  0
    1.4429   -1.0710    0.0000 C   0  0  0  0  0  0  0  0  0  0  0  0
    1.8554   -0.3566    0.0000 Cl  0  0  0  0  0  0  0  0  0  0  0  0
    0.6179   -1.0710    0.0000 C   0  0  0  0  0  0  0  0  0  0  0  0
    0.2054   -1.7855    0.0000 Cl  0  0  0  0  0  0  0  0  0  0  0  0
    0.2054   -0.3566    0.0000 Cl  0  0  0  0  0  0  0  0  0  0  0  0
  1  2  1  0  0  0  0
  2  3  1  0  0  0  0
  2  4  2  0  0  0  0
  4  5  1  0  0  0  0
  4  6  1  0  0  0  0
M  END
> <ChemID>
100659

> <CAS>
127-18-4

> <Original_SMILES>
ClC(Cl)=C(Cl)Cl

> <preferred_name>
Tetrachloroethylene

> <dsstox_substance_id>
DTXSID2021319

> <dsstox_compound_id>
DTXCID601319

> <qc_level>
DSSTox_Low

> <Canonical_QSARr>
ClC(Cl)=C(Cl)Cl

> <InChI_Code_QSARr>
InChI=1S/C2Cl4/c3-1(4)2(5)6

> <InChI Key_QSARr>
CYTYCFOTNPOANT-UHFFFAOYSA-N

> <Salt_Solvent>


> <Salt_Solvent_ID>
0

> <MPID>
100668

> <Tr_1_Tst_0>
1

> <Ready_Biodeg>
0.0

$$$$
Row649
  Mrv171c012251911052D          

  6  5  0  0  0  0            999 V2000
    1.2751   -0.6739    0.0000 C   0  0  0  0  0  0  0  0  0  0  0  0
    0.8626    0.0406    0.0000 C   0  0  0  0  0  0  0  0  0  0  0  0
    2.1001   -0.6739    0.0000 O   0  0  0  0  0  0  0  0  0  0  0  0
    0.8626   -1.3883    0.0000 N   0  0  0  0  0  0  0  0  0  0  0  0
    1.2751   -2.1028    0.0000 C   0  0  0  0  0  0  0  0  0  0  0  0
    0.0376   -1.3883    0.0000 C   0  0  0  0  0  0  0  0  0  0  0  0
  1  2  1  0  0  0  0
  1  3  2  0  0  0  0
  1  4  1  0  0  0  0
  4  5  1  0  0  0  0
  4  6  1  0  0  0  0
M  END
> <ChemID>
100660

> <CAS>
127-19-5

> <Original_SMILES>
CC(=O)N(C)C

> <preferred_name>
N,N-Dimethylacetamide

> <dsstox_substance_id>
DTXSID5020499

> <dsstox_compound_id>
DTXCID90499

> <qc_level>
DSSTox_Low

> <Canonical_QSARr>
CC(=O)N(C)C

> <InChI_Code_QSARr>
InChI=1S/C4H9NO/c1-4(6)5(2)3/h1-3H3

> <InChI Key_QSARr>
FXHOOIRPVKKKFG-UHFFFAOYSA-N

> <Salt_Solvent>


> <Salt_Solvent_ID>
0

> <MPID>
100669

> <Tr_1_Tst_0>
1

> <Ready_Biodeg>
1.0

$$$$
Row650
  Mrv171c012251911052D          

 15 14  0  0  0  0            999 V2000
    2.2007   -1.2374    0.0000 C   0  0  0  0  0  0  0  0  0  0  0  0
    2.2007   -2.0624    0.0000 O   0  0  0  0  0  0  0  0  0  0  0  0
    1.4862   -2.4749    0.0000 C   0  0  0  0  0  0  0  0  0  0  0  0
    1.4862   -3.2999    0.0000 C   0  0  0  0  0  0  0  0  0  0  0  0
    2.2007   -3.7124    0.0000 Cl  0  0  0  0  0  0  0  0  0  0  0  0
    0.7718   -3.7124    0.0000 C   0  0  0  0  0  0  0  0  0  0  0  0
    0.0573   -4.1249    0.0000 Cl  0  0  0  0  0  0  0  0  0  0  0  0
    1.1843   -4.4269    0.0000 Cl  0  0  0  0  0  0  0  0  0  0  0  0
    0.3593   -2.9980    0.0000 Cl  0  0  0  0  0  0  0  0  0  0  0  0
    2.9152   -0.8249    0.0000 C   0  0  0  0  0  0  0  0  0  0  0  0
    3.6296   -1.2374    0.0000 Cl  0  0  0  0  0  0  0  0  0  0  0  0
    2.9152    0.0001    0.0000 C   0  0  0  0  0  0  0  0  0  0  0  0
    2.9152    0.8251    0.0000 Cl  0  0  0  0  0  0  0  0  0  0  0  0
    3.7402    0.0001    0.0000 Cl  0  0  0  0  0  0  0  0  0  0  0  0
    2.0902    0.0001    0.0000 Cl  0  0  0  0  0  0  0  0  0  0  0  0
  1  2  1  0  0  0  0
  2  3  1  0  0  0  0
  3  4  1  0  0  0  0
  4  5  1  0  0  0  0
  4  6  1  0  0  0  0
  6  7  1  0  0  0  0
  6  8  1  0  0  0  0
  6  9  1  0  0  0  0
  1 10  1  0  0  0  0
 10 11  1  0  0  0  0
 10 12  1  0  0  0  0
 12 13  1  0  0  0  0
 12 14  1  0  0  0  0
 12 15  1  0  0  0  0
M  END
> <ChemID>
100661

> <CAS>
127-90-2

> <Original_SMILES>
ClC(Cl)(Cl)C(Cl)COCC(Cl)C(Cl)(Cl)Cl

> <preferred_name>


> <dsstox_substance_id>
DTXSID40861778

> <dsstox_compound_id>
DTXCID30810659

> <qc_level>


> <Canonical_QSARr>
ClC(Cl)(Cl)C(Cl)COCC(Cl)C(Cl)(Cl)Cl

> <InChI_Code_QSARr>
InChI=1S/C6H6Cl8O/c7-3(5(9,10)11)1-15-2-4(8)6(12,13)14/h3-4H,1-2H2

> <InChI Key_QSARr>
LNJXZKBHJZAIKQ-UHFFFAOYSA-N

> <Salt_Solvent>


> <Salt_Solvent_ID>
0

> <MPID>
100670

> <Tr_1_Tst_0>
0

> <Ready_Biodeg>
0.0

$$$$
Row651
  Mrv171c012251911052D          

 16 16  0  0  0  0            999 V2000
    4.0266   -2.2423    0.0000 O   0  0  0  0  0  0  0  0  0  0  0  0
    3.3122   -2.6548    0.0000 C   0  0  0  0  0  0  0  0  0  0  0  0
    2.5977   -2.2423    0.0000 C   0  0  0  0  0  0  0  0  0  0  0  0
    2.5977   -1.4173    0.0000 C   0  0  0  0  0  0  0  0  0  0  0  0
    2.5977   -0.5923    0.0000 C   0  0  0  0  0  0  0  0  0  0  0  0
    1.7727   -1.4173    0.0000 C   0  0  0  0  0  0  0  0  0  0  0  0
    3.4227   -1.4173    0.0000 C   0  0  0  0  0  0  0  0  0  0  0  0
    1.8832   -2.6548    0.0000 C   0  0  0  0  0  0  0  0  0  0  0  0
    1.8832   -3.4798    0.0000 C   0  0  0  0  0  0  0  0  0  0  0  0
    1.1687   -3.8923    0.0000 C   0  0  0  0  0  0  0  0  0  0  0  0
    2.5977   -3.8923    0.0000 C   0  0  0  0  0  0  0  0  0  0  0  0
    3.3122   -3.4798    0.0000 C   0  0  0  0  0  0  0  0  0  0  0  0
    4.0266   -3.8923    0.0000 C   0  0  0  0  0  0  0  0  0  0  0  0
    4.7411   -4.3048    0.0000 C   0  0  0  0  0  0  0  0  0  0  0  0
    3.6141   -4.6067    0.0000 C   0  0  0  0  0  0  0  0  0  0  0  0
    4.4391   -3.1778    0.0000 C   0  0  0  0  0  0  0  0  0  0  0  0
  1  2  1  0  0  0  0
  3  2  1  0  0  0  0
  3  4  1  0  0  0  0
  4  5  1  0  0  0  0
  4  6  1  0  0  0  0
  4  7  1  0  0  0  0
  8  3  2  0  0  0  0
  9  8  1  0  0  0  0
  9 10  1  0  0  0  0
 11  9  2  0  0  0  0
 12 11  1  0  0  0  0
  2 12  2  0  0  0  0
 12 13  1  0  0  0  0
 13 14  1  0  0  0  0
 13 15  1  0  0  0  0
 13 16  1  0  0  0  0
M  END
> <ChemID>
100662

> <CAS>
128-37-0

> <Original_SMILES>
Cc1cc(c(O)c(c1)C(C)(C)C)C(C)(C)C

> <preferred_name>
Butylated hydroxytoluene

> <dsstox_substance_id>
DTXSID2020216

> <dsstox_compound_id>
DTXCID20216

> <qc_level>
DSSTox_Low

> <Canonical_QSARr>
CC1C=C(C(O)=C(C=1)C(C)(C)C)C(C)(C)C

> <InChI_Code_QSARr>
InChI=1S/C15H24O/c1-10-8-11(14(2,3)4)13(16)12(9-10)15(5,6)7/h8-9,16H,1-7H3

> <InChI Key_QSARr>
NLZUEZXRPGMBCV-UHFFFAOYSA-N

> <Salt_Solvent>


> <Salt_Solvent_ID>
0

> <MPID>
100671

> <Tr_1_Tst_0>
1

> <Ready_Biodeg>
1.0

$$$$
Row652
  Mrv171c012251911052D          

 15 15  0  0  0  0            999 V2000
    2.3374   -1.1472    0.0000 C   0  0  0  0  0  0  0  0  0  0  0  0
    1.6229   -0.7347    0.0000 C   0  0  0  0  0  0  0  0  0  0  0  0
    1.6229    0.0903    0.0000 C   0  0  0  0  0  0  0  0  0  0  0  0
    1.6229    0.9153    0.0000 C   0  0  0  0  0  0  0  0  0  0  0  0
    0.7979    0.0903    0.0000 C   0  0  0  0  0  0  0  0  0  0  0  0
    2.4479    0.0903    0.0000 C   0  0  0  0  0  0  0  0  0  0  0  0
    0.9085   -1.1472    0.0000 C   0  0  0  0  0  0  0  0  0  0  0  0
    0.9085   -1.9722    0.0000 C   0  0  0  0  0  0  0  0  0  0  0  0
    1.6229   -2.3847    0.0000 C   0  0  0  0  0  0  0  0  0  0  0  0
    2.3374   -1.9722    0.0000 C   0  0  0  0  0  0  0  0  0  0  0  0
    3.0519   -2.3847    0.0000 C   0  0  0  0  0  0  0  0  0  0  0  0
    3.7664   -2.7972    0.0000 C   0  0  0  0  0  0  0  0  0  0  0  0
    2.6394   -3.0992    0.0000 C   0  0  0  0  0  0  0  0  0  0  0  0
    3.4644   -1.6703    0.0000 C   0  0  0  0  0  0  0  0  0  0  0  0
    3.0519   -0.7347    0.0000 O   0  0  0  0  0  0  0  0  0  0  0  0
  2  1  1  0  0  0  0
  2  3  1  0  0  0  0
  3  4  1  0  0  0  0
  3  5  1  0  0  0  0
  3  6  1  0  0  0  0
  7  2  2  0  0  0  0
  8  7  1  0  0  0  0
  9  8  2  0  0  0  0
 10  9  1  0  0  0  0
  1 10  2  0  0  0  0
 10 11  1  0  0  0  0
 11 12  1  0  0  0  0
 11 13  1  0  0  0  0
 11 14  1  0  0  0  0
  1 15  1  0  0  0  0
M  END
> <ChemID>
100663

> <CAS>
128-39-2

> <Original_SMILES>
CC(C)(C)c1cccc(c1O)C(C)(C)C

> <preferred_name>
2,6-Di-tert-butylphenol

> <dsstox_substance_id>
DTXSID6027052

> <dsstox_compound_id>
DTXCID007052

> <qc_level>
DSSTox_Low

> <Canonical_QSARr>
CC(C)(C)C1=CC=CC(=C1O)C(C)(C)C

> <InChI_Code_QSARr>
InChI=1S/C14H22O/c1-13(2,3)10-8-7-9-11(12(10)15)14(4,5)6/h7-9,15H,1-6H3

> <InChI Key_QSARr>
DKCPKDPYUFEZCP-UHFFFAOYSA-N

> <Salt_Solvent>


> <Salt_Solvent_ID>
0

> <MPID>
100672

> <Tr_1_Tst_0>
1

> <Ready_Biodeg>
0.0

$$$$
Row653
  Mrv171c012251911052D          

 17 19  0  0  0  0            999 V2000
    1.4708   -0.6309    0.0000 O   0  0  0  0  0  0  0  0  0  0  0  0
    1.4708   -1.4559    0.0000 C   0  0  0  0  0  0  0  0  0  0  0  0
    2.1853   -1.8684    0.0000 C   0  0  0  0  0  0  0  0  0  0  0  0
    2.8997   -1.4559    0.0000 C   0  0  0  0  0  0  0  0  0  0  0  0
    3.6142   -1.8684    0.0000 C   0  0  0  0  0  0  0  0  0  0  0  0
    3.6142   -2.6934    0.0000 C   0  0  0  0  0  0  0  0  0  0  0  0
    2.8997   -3.1059    0.0000 C   0  0  0  0  0  0  0  0  0  0  0  0
    2.1853   -2.6934    0.0000 C   0  0  0  0  0  0  0  0  0  0  0  0
    1.4708   -3.1059    0.0000 C   0  0  0  0  0  0  0  0  0  0  0  0
    1.4708   -3.9309    0.0000 O   0  0  0  0  0  0  0  0  0  0  0  0
    0.7563   -2.6934    0.0000 C   0  0  0  0  0  0  0  0  0  0  0  0
    0.0418   -3.1059    0.0000 C   0  0  0  0  0  0  0  0  0  0  0  0
   -0.6726   -2.6934    0.0000 C   0  0  0  0  0  0  0  0  0  0  0  0
   -0.6726   -1.8684    0.0000 C   0  0  0  0  0  0  0  0  0  0  0  0
    0.0418   -1.4559    0.0000 C   0  0  0  0  0  0  0  0  0  0  0  0
    0.0418   -0.6309    0.0000 O   0  0  0  0  0  0  0  0  0  0  0  0
    0.7563   -1.8684    0.0000 C   0  0  0  0  0  0  0  0  0  0  0  0
  1  2  2  0  0  0  0
  3  2  1  0  0  0  0
  3  4  1  0  0  0  0
  4  5  2  0  0  0  0
  5  6  1  0  0  0  0
  6  7  2  0  0  0  0
  7  8  1  0  0  0  0
  8  3  2  0  0  0  0
  9  8  1  0  0  0  0
  9 10  2  0  0  0  0
 11  9  1  0  0  0  0
 11 12  2  0  0  0  0
 12 13  1  0  0  0  0
 13 14  2  0  0  0  0
 14 15  1  0  0  0  0
 15 16  1  0  0  0  0
 15 17  2  0  0  0  0
  2 17  1  0  0  0  0
 17 11  1  0  0  0  0
M  END
> <ChemID>
100664

> <CAS>
129-43-1

> <Original_SMILES>
Oc1cccc2c1C(=O)c1ccccc1C2=O

> <preferred_name>
1-Hydroxyanthraquinone

> <dsstox_substance_id>
DTXSID1020722

> <dsstox_compound_id>
DTXCID70722

> <qc_level>
DSSTox_Low

> <Canonical_QSARr>
OC1C=CC=C2C=1C(=O)C1C=CC=CC=1C2=O

> <InChI_Code_QSARr>
InChI=1S/C14H8O3/c15-11-7-3-6-10-12(11)14(17)9-5-2-1-4-8(9)13(10)16/h1-7,15H

> <InChI Key_QSARr>
BTLXPCBPYBNQNR-UHFFFAOYSA-N

> <Salt_Solvent>


> <Salt_Solvent_ID>
0

> <MPID>
100673

> <Tr_1_Tst_0>
1

> <Ready_Biodeg>
0.0

$$$$
Row654
  Mrv171c012251911052D          

 22 24  0  0  0  0            999 V2000
   -2.7929    1.6500    0.0000 O   0  0  0  0  0  0  0  0  0  0  0  0
   -2.0785    1.2375    0.0000 S   0  0  0  0  0  0  0  0  0  0  0  0
   -1.3640    0.8250    0.0000 C   0  0  0  0  0  0  0  0  0  0  0  0
   -0.6495    1.2375    0.0000 C   0  0  0  0  0  0  0  0  0  0  0  0
    0.0650    0.8250    0.0000 C   0  0  0  0  0  0  0  0  0  0  0  0
    0.7794    1.2375    0.0000 C   0  0  0  0  0  0  0  0  0  0  0  0
    1.4939    0.8250    0.0000 C   0  0  0  0  0  0  0  0  0  0  0  0
    1.4939    0.0000    0.0000 C   0  0  0  0  0  0  0  0  0  0  0  0
    0.7794   -0.4125    0.0000 C   0  0  0  0  0  0  0  0  0  0  0  0
    0.7794   -1.2375    0.0000 O   0  0  0  0  0  0  0  0  0  0  0  0
    0.0650    0.0000    0.0000 C   0  0  0  0  0  0  0  0  0  0  0  0
   -0.6495   -0.4125    0.0000 C   0  0  0  0  0  0  0  0  0  0  0  0
   -0.6495   -1.2375    0.0000 O   0  0  0  0  0  0  0  0  0  0  0  0
   -1.3640   -0.0000    0.0000 C   0  0  0  0  0  0  0  0  0  0  0  0
   -2.0785   -0.4125    0.0000 O   0  0  0  0  0  0  0  0  0  0  0  0
    2.2084   -0.4125    0.0000 C   0  0  0  0  0  0  0  0  0  0  0  0
    2.9228   -0.0000    0.0000 C   0  0  0  0  0  0  0  0  0  0  0  0
    2.9228    0.8250    0.0000 C   0  0  0  0  0  0  0  0  0  0  0  0
    2.2084    1.2375    0.0000 C   0  0  0  0  0  0  0  0  0  0  0  0
    0.7794    2.0625    0.0000 O   0  0  0  0  0  0  0  0  0  0  0  0
   -2.4910    0.5230    0.0000 O   0  0  0  0  0  0  0  0  0  0  0  0
   -1.6660    1.9520    0.0000 O   0  0  0  0  0  0  0  0  0  0  0  0
  1  2  1  0  0  0  0
  2  3  1  0  0  0  0
  4  3  1  0  0  0  0
  5  4  2  0  0  0  0
  5  6  1  0  0  0  0
  6  7  1  0  0  0  0
  8  7  1  0  0  0  0
  8  9  1  0  0  0  0
  9 10  2  0  0  0  0
  9 11  1  0  0  0  0
 11  5  1  0  0  0  0
 12 11  2  0  0  0  0
 12 13  1  0  0  0  0
 14 12  1  0  0  0  0
  3 14  2  0  0  0  0
 14 15  1  0  0  0  0
 16  8  2  0  0  0  0
 17 16  1  0  0  0  0
 18 17  2  0  0  0  0
 19 18  1  0  0  0  0
  7 19  2  0  0  0  0
  6 20  2  0  0  0  0
  2 21  2  0  0  0  0
  2 22  2  0  0  0  0
M  END
> <ChemID>
100665

> <CAS>
24623-77-6

> <Original_SMILES>
[Na+].[O-]S(=O)(=O)c1cc2c(C(=O)c3ccccc3C2=O)c(O)c1O

> <preferred_name>
Aluminium hydroxide oxide

> <dsstox_substance_id>
DTXSID0052679

> <dsstox_compound_id>
DTXCID1031252

> <qc_level>
DSSTox_High

> <Canonical_QSARr>
OC1=C2C(=CC(=C1O)S(O)(=O)=O)C(=O)C1=CC=CC=C1C2=O

> <InChI_Code_QSARr>
InChI=1S/C14H8O7S/c15-11-6-3-1-2-4-7(6)12(16)10-8(11)5-9(22(19,20)21)13(17)14(10)18/h1-5,17-18H,(H,19,20,21)

> <InChI Key_QSARr>
JKYKXTRKURYNGW-UHFFFAOYSA-N

> <Salt_Solvent>
[Na+]

> <Salt_Solvent_ID>
110

> <MPID>
100674

> <Tr_1_Tst_0>
1

> <Ready_Biodeg>
0.0

$$$$
Row655
  Mrv171c012251911052D          

 17 19  0  0  0  0            999 V2000
   -0.0003   -1.1416    0.0000 C   0  0  0  0  0  0  0  0  0  0  0  0
    0.7141   -0.7291    0.0000 C   0  0  0  0  0  0  0  0  0  0  0  0
    1.4286   -1.1416    0.0000 C   0  0  0  0  0  0  0  0  0  0  0  0
    2.1431   -0.7291    0.0000 C   0  0  0  0  0  0  0  0  0  0  0  0
    2.1431    0.0959    0.0000 O   0  0  0  0  0  0  0  0  0  0  0  0
    2.8576   -1.1416    0.0000 C   0  0  0  0  0  0  0  0  0  0  0  0
    2.8576   -1.9666    0.0000 C   0  0  0  0  0  0  0  0  0  0  0  0
    2.1431   -2.3791    0.0000 C   0  0  0  0  0  0  0  0  0  0  0  0
    2.1431   -3.2041    0.0000 O   0  0  0  0  0  0  0  0  0  0  0  0
    1.4286   -1.9666    0.0000 C   0  0  0  0  0  0  0  0  0  0  0  0
    0.7141   -2.3791    0.0000 C   0  0  0  0  0  0  0  0  0  0  0  0
   -0.0003   -1.9666    0.0000 C   0  0  0  0  0  0  0  0  0  0  0  0
    3.5720   -2.3791    0.0000 C   0  0  0  0  0  0  0  0  0  0  0  0
    4.2865   -1.9666    0.0000 C   0  0  0  0  0  0  0  0  0  0  0  0
    5.0010   -2.3791    0.0000 Cl  0  0  0  0  0  0  0  0  0  0  0  0
    4.2865   -1.1416    0.0000 C   0  0  0  0  0  0  0  0  0  0  0  0
    3.5720   -0.7291    0.0000 C   0  0  0  0  0  0  0  0  0  0  0  0
  2  1  2  0  0  0  0
  3  2  1  0  0  0  0
  3  4  1  0  0  0  0
  4  5  2  0  0  0  0
  4  6  1  0  0  0  0
  7  6  2  0  0  0  0
  7  8  1  0  0  0  0
  8  9  2  0  0  0  0
  8 10  1  0  0  0  0
 10  3  2  0  0  0  0
 11 10  1  0  0  0  0
 12 11  2  0  0  0  0
  1 12  1  0  0  0  0
 13  7  1  0  0  0  0
 14 13  2  0  0  0  0
 14 15  1  0  0  0  0
 16 14  1  0  0  0  0
 17 16  2  0  0  0  0
  6 17  1  0  0  0  0
M  END
> <ChemID>
100666

> <CAS>
131-09-9

> <Original_SMILES>
O=C1c2cc(Cl)ccc2C(=O)c2ccccc12

> <preferred_name>
2-Chloroanthraquinone

> <dsstox_substance_id>
DTXSID7049213

> <dsstox_compound_id>
DTXCID9029069

> <qc_level>
DSSTox_Low

> <Canonical_QSARr>
O=C1C2C=C(Cl)C=CC=2C(=O)C2C=CC=CC1=2

> <InChI_Code_QSARr>
InChI=1S/C14H7ClO2/c15-8-5-6-11-12(7-8)14(17)10-4-2-1-3-9(10)13(11)16/h1-7H

> <InChI Key_QSARr>
FPKCTSIVDAWGFA-UHFFFAOYSA-N

> <Salt_Solvent>


> <Salt_Solvent_ID>
0

> <MPID>
100675

> <Tr_1_Tst_0>
0

> <Ready_Biodeg>
0.0

$$$$
Row656
  Mrv171c012251911052D          

 14 14  0  0  0  0            999 V2000
    1.5038   -2.3082    0.0000 C   0  0  0  0  0  0  0  0  0  0  0  0
    0.7893   -1.8957    0.0000 C   0  0  0  0  0  0  0  0  0  0  0  0
    0.0748   -2.3082    0.0000 O   0  0  0  0  0  0  0  0  0  0  0  0
   -0.6397   -1.8957    0.0000 C   0  0  0  0  0  0  0  0  0  0  0  0
    0.7893   -1.0707    0.0000 O   0  0  0  0  0  0  0  0  0  0  0  0
    1.5038   -3.1332    0.0000 C   0  0  0  0  0  0  0  0  0  0  0  0
    2.2182   -3.5457    0.0000 C   0  0  0  0  0  0  0  0  0  0  0  0
    2.9327   -3.1332    0.0000 C   0  0  0  0  0  0  0  0  0  0  0  0
    2.9327   -2.3082    0.0000 C   0  0  0  0  0  0  0  0  0  0  0  0
    2.2182   -1.8957    0.0000 C   0  0  0  0  0  0  0  0  0  0  0  0
    2.2182   -1.0707    0.0000 C   0  0  0  0  0  0  0  0  0  0  0  0
    2.9327   -0.6582    0.0000 O   0  0  0  0  0  0  0  0  0  0  0  0
    2.9327    0.1668    0.0000 C   0  0  0  0  0  0  0  0  0  0  0  0
    1.5038   -0.6582    0.0000 O   0  0  0  0  0  0  0  0  0  0  0  0
  1  2  1  0  0  0  0
  2  3  1  0  0  0  0
  3  4  1  0  0  0  0
  2  5  2  0  0  0  0
  6  1  1  0  0  0  0
  7  6  2  0  0  0  0
  8  7  1  0  0  0  0
  9  8  2  0  0  0  0
 10  9  1  0  0  0  0
  1 10  2  0  0  0  0
 10 11  1  0  0  0  0
 11 12  1  0  0  0  0
 12 13  1  0  0  0  0
 11 14  2  0  0  0  0
M  END
> <ChemID>
100667

> <CAS>
131-11-3

> <Original_SMILES>
COC(=O)c1ccccc1C(=O)OC

> <preferred_name>
Dimethyl phthalate

> <dsstox_substance_id>
DTXSID3022455

> <dsstox_compound_id>
DTXCID502455

> <qc_level>
DSSTox_Low

> <Canonical_QSARr>
COC(=O)C1C=CC=CC=1C(=O)OC

> <InChI_Code_QSARr>
InChI=1S/C10H10O4/c1-13-9(11)7-5-3-4-6-8(7)10(12)14-2/h3-6H,1-2H3

> <InChI Key_QSARr>
NIQCNGHVCWTJSM-UHFFFAOYSA-N

> <Salt_Solvent>


> <Salt_Solvent_ID>
0

> <MPID>
100676

> <Tr_1_Tst_0>
1

> <Ready_Biodeg>
1.0

$$$$
Row657
  Mrv171c012251911052D          

 18 18  0  0  0  0            999 V2000
    2.3719   -1.0078    0.0000 O   0  0  0  0  0  0  0  0  0  0  0  0
    1.6574   -1.4203    0.0000 C   0  0  0  0  0  0  0  0  0  0  0  0
    0.9430   -1.0078    0.0000 O   0  0  0  0  0  0  0  0  0  0  0  0
    0.9430   -0.1828    0.0000 C   0  0  0  0  0  0  0  0  0  0  0  0
    0.2285    0.2297    0.0000 C   0  0  0  0  0  0  0  0  0  0  0  0
    0.2285    1.0547    0.0000 C   0  0  0  0  0  0  0  0  0  0  0  0
    1.6574   -2.2453    0.0000 C   0  0  0  0  0  0  0  0  0  0  0  0
    0.9430   -2.6578    0.0000 C   0  0  0  0  0  0  0  0  0  0  0  0
    0.9430   -3.4828    0.0000 C   0  0  0  0  0  0  0  0  0  0  0  0
    1.6574   -3.8953    0.0000 C   0  0  0  0  0  0  0  0  0  0  0  0
    2.3719   -3.4828    0.0000 C   0  0  0  0  0  0  0  0  0  0  0  0
    2.3719   -2.6578    0.0000 C   0  0  0  0  0  0  0  0  0  0  0  0
    3.0864   -2.2453    0.0000 C   0  0  0  0  0  0  0  0  0  0  0  0
    3.8009   -2.6578    0.0000 O   0  0  0  0  0  0  0  0  0  0  0  0
    4.5153   -2.2453    0.0000 C   0  0  0  0  0  0  0  0  0  0  0  0
    5.2298   -2.6578    0.0000 C   0  0  0  0  0  0  0  0  0  0  0  0
    5.9443   -2.2453    0.0000 C   0  0  0  0  0  0  0  0  0  0  0  0
    3.0864   -1.4203    0.0000 O   0  0  0  0  0  0  0  0  0  0  0  0
  1  2  2  0  0  0  0
  2  3  1  0  0  0  0
  3  4  1  0  0  0  0
  4  5  1  0  0  0  0
  5  6  2  0  0  0  0
  2  7  1  0  0  0  0
  8  7  1  0  0  0  0
  9  8  2  0  0  0  0
 10  9  1  0  0  0  0
 11 10  2  0  0  0  0
 12 11  1  0  0  0  0
  7 12  2  0  0  0  0
 12 13  1  0  0  0  0
 13 14  1  0  0  0  0
 14 15  1  0  0  0  0
 15 16  1  0  0  0  0
 16 17  2  0  0  0  0
 13 18  2  0  0  0  0
M  END
> <ChemID>
100668

> <CAS>
131-17-9

> <Original_SMILES>
C=CCOC(=O)c1ccccc1C(=O)OCC=C

> <preferred_name>
Diallyl phthalate

> <dsstox_substance_id>
DTXSID7020392

> <dsstox_compound_id>
DTXCID70392

> <qc_level>
DSSTox_Low

> <Canonical_QSARr>
C=CCOC(=O)C1C=CC=CC=1C(=O)OCC=C

> <InChI_Code_QSARr>
InChI=1S/C14H14O4/c1-3-9-17-13(15)11-7-5-6-8-12(11)14(16)18-10-4-2/h3-8H,1-2,9-10H2

> <InChI Key_QSARr>
QUDWYFHPNIMBFC-UHFFFAOYSA-N

> <Salt_Solvent>


> <Salt_Solvent_ID>
0

> <MPID>
100677

> <Tr_1_Tst_0>
1

> <Ready_Biodeg>
1.0

$$$$
Row658
  Mrv171c012251911052D          

 17 18  0  0  0  0            999 V2000
    2.1009   -1.6512    0.0000 C   0  0  0  0  0  0  0  0  0  0  0  0
    2.8154   -1.2387    0.0000 C   0  0  0  0  0  0  0  0  0  0  0  0
    2.8154   -0.4137    0.0000 C   0  0  0  0  0  0  0  0  0  0  0  0
    2.1009   -0.0012    0.0000 C   0  0  0  0  0  0  0  0  0  0  0  0
    2.1009    0.8238    0.0000 O   0  0  0  0  0  0  0  0  0  0  0  0
    1.3865    1.2363    0.0000 C   0  0  0  0  0  0  0  0  0  0  0  0
    1.3865   -0.4137    0.0000 C   0  0  0  0  0  0  0  0  0  0  0  0
    1.3865   -1.2387    0.0000 C   0  0  0  0  0  0  0  0  0  0  0  0
    0.6720   -1.6512    0.0000 O   0  0  0  0  0  0  0  0  0  0  0  0
    2.1009   -2.4762    0.0000 C   0  0  0  0  0  0  0  0  0  0  0  0
    2.8154   -2.8887    0.0000 C   0  0  0  0  0  0  0  0  0  0  0  0
    2.8154   -3.7137    0.0000 C   0  0  0  0  0  0  0  0  0  0  0  0
    3.5299   -4.1262    0.0000 C   0  0  0  0  0  0  0  0  0  0  0  0
    4.2443   -3.7137    0.0000 C   0  0  0  0  0  0  0  0  0  0  0  0
    4.2443   -2.8887    0.0000 C   0  0  0  0  0  0  0  0  0  0  0  0
    3.5299   -2.4762    0.0000 C   0  0  0  0  0  0  0  0  0  0  0  0
    1.3865   -2.8887    0.0000 O   0  0  0  0  0  0  0  0  0  0  0  0
  2  1  2  0  0  0  0
  3  2  1  0  0  0  0
  4  3  2  0  0  0  0
  4  5  1  0  0  0  0
  5  6  1  0  0  0  0
  7  4  1  0  0  0  0
  8  7  2  0  0  0  0
  1  8  1  0  0  0  0
  8  9  1  0  0  0  0
  1 10  1  0  0  0  0
 10 11  1  0  0  0  0
 12 11  2  0  0  0  0
 13 12  1  0  0  0  0
 14 13  2  0  0  0  0
 15 14  1  0  0  0  0
 16 15  2  0  0  0  0
 11 16  1  0  0  0  0
 10 17  2  0  0  0  0
M  END
> <ChemID>
100669

> <CAS>
131-57-7

> <Original_SMILES>
COc1cc(O)c(cc1)C(=O)c1ccccc1

> <preferred_name>
2-Hydroxy-4-methoxybenzophenone

> <dsstox_substance_id>
DTXSID3022405

> <dsstox_compound_id>
DTXCID002405

> <qc_level>
DSSTox_Low

> <Canonical_QSARr>
COC1C=C(O)C(=CC=1)C(=O)C1C=CC=CC=1

> <InChI_Code_QSARr>
InChI=1S/C14H12O3/c1-17-11-7-8-12(13(15)9-11)14(16)10-5-3-2-4-6-10/h2-9,15H,1H3

> <InChI Key_QSARr>
DXGLGDHPHMLXJC-UHFFFAOYSA-N

> <Salt_Solvent>


> <Salt_Solvent_ID>
0

> <MPID>
100678

> <Tr_1_Tst_0>
1

> <Ready_Biodeg>
0.0

$$$$
Row659
  Mrv171c012251911052D          

 13 15  0  0  0  0            999 V2000
    0.5267   -1.6923    0.0000 C   0  0  0  0  0  0  0  0  0  0  0  0
    1.3336   -1.5208    0.0000 C   0  0  0  0  0  0  0  0  0  0  0  0
    2.0011   -2.0057    0.0000 O   0  0  0  0  0  0  0  0  0  0  0  0
    2.6685   -1.5208    0.0000 C   0  0  0  0  0  0  0  0  0  0  0  0
    3.4755   -1.6923    0.0000 C   0  0  0  0  0  0  0  0  0  0  0  0
    4.0275   -1.0792    0.0000 C   0  0  0  0  0  0  0  0  0  0  0  0
    3.7726   -0.2946    0.0000 C   0  0  0  0  0  0  0  0  0  0  0  0
    2.9656   -0.1231    0.0000 C   0  0  0  0  0  0  0  0  0  0  0  0
    2.4136   -0.7361    0.0000 C   0  0  0  0  0  0  0  0  0  0  0  0
    1.5886   -0.7361    0.0000 C   0  0  0  0  0  0  0  0  0  0  0  0
    1.0365   -0.1231    0.0000 C   0  0  0  0  0  0  0  0  0  0  0  0
    0.2296   -0.2946    0.0000 C   0  0  0  0  0  0  0  0  0  0  0  0
   -0.0254   -1.0792    0.0000 C   0  0  0  0  0  0  0  0  0  0  0  0
  2  1  1  0  0  0  0
  2  3  1  0  0  0  0
  3  4  1  0  0  0  0
  5  4  2  0  0  0  0
  6  5  1  0  0  0  0
  7  6  2  0  0  0  0
  8  7  1  0  0  0  0
  9  8  2  0  0  0  0
  4  9  1  0  0  0  0
  9 10  1  0  0  0  0
 10  2  2  0  0  0  0
 11 10  1  0  0  0  0
 12 11  2  0  0  0  0
 13 12  1  0  0  0  0
  1 13  2  0  0  0  0
M  END
> <ChemID>
100670

> <CAS>
132-64-9

> <Original_SMILES>
c1cccc2oc3ccccc3c21

> <preferred_name>
Dibenzofuran

> <dsstox_substance_id>
DTXSID2021993

> <dsstox_compound_id>
DTXCID801993

> <qc_level>
DSSTox_Low

> <Canonical_QSARr>
C1=CC=CC2OC3=CC=CC=C3C=21

> <InChI_Code_QSARr>
InChI=1S/C12H8O/c1-3-7-11-9(5-1)10-6-2-4-8-12(10)13-11/h1-8H

> <InChI Key_QSARr>
TXCDCPKCNAJMEE-UHFFFAOYSA-N

> <Salt_Solvent>


> <Salt_Solvent_ID>
0

> <MPID>
100679

> <Tr_1_Tst_0>
0

> <Ready_Biodeg>
1.0

$$$$
Row660
  Mrv171c012251911052D          

 13 15  0  0  0  0            999 V2000
    2.6771   -0.4818    0.0000 C   0  0  0  0  0  0  0  0  0  0  0  0
    3.4841   -0.3102    0.0000 C   0  0  0  0  0  0  0  0  0  0  0  0
    4.0361   -0.9233    0.0000 C   0  0  0  0  0  0  0  0  0  0  0  0
    3.7812   -1.7080    0.0000 C   0  0  0  0  0  0  0  0  0  0  0  0
    2.9742   -1.8795    0.0000 C   0  0  0  0  0  0  0  0  0  0  0  0
    2.4221   -1.2664    0.0000 C   0  0  0  0  0  0  0  0  0  0  0  0
    1.5971   -1.2664    0.0000 C   0  0  0  0  0  0  0  0  0  0  0  0
    1.0451   -1.8795    0.0000 C   0  0  0  0  0  0  0  0  0  0  0  0
    0.2381   -1.7080    0.0000 C   0  0  0  0  0  0  0  0  0  0  0  0
   -0.0168   -0.9233    0.0000 C   0  0  0  0  0  0  0  0  0  0  0  0
    0.5352   -0.3102    0.0000 C   0  0  0  0  0  0  0  0  0  0  0  0
    1.3422   -0.4818    0.0000 C   0  0  0  0  0  0  0  0  0  0  0  0
    2.0096    0.0032    0.0000 S   0  0  0  0  0  0  0  0  0  0  0  0
  2  1  1  0  0  0  0
  3  2  2  0  0  0  0
  4  3  1  0  0  0  0
  5  4  2  0  0  0  0
  6  5  1  0  0  0  0
  6  1  2  0  0  0  0
  7  6  1  0  0  0  0
  7  8  1  0  0  0  0
  8  9  2  0  0  0  0
  9 10  1  0  0  0  0
 10 11  2  0  0  0  0
 11 12  1  0  0  0  0
 12  7  2  0  0  0  0
 13 12  1  0  0  0  0
  1 13  1  0  0  0  0
M  END
> <ChemID>
100671

> <CAS>
132-65-0

> <Original_SMILES>
c1cccc2[s]c3ccccc3c21

> <preferred_name>
Dibenzothiophene

> <dsstox_substance_id>
DTXSID0047741

> <dsstox_compound_id>
DTXCID0027725

> <qc_level>
DSSTox_Low

> <Canonical_QSARr>
C1=CC=CC2SC3C=CC=CC=3C=21

> <InChI_Code_QSARr>
InChI=1S/C12H8S/c1-3-7-11-9(5-1)10-6-2-4-8-12(10)13-11/h1-8H

> <InChI Key_QSARr>
IYYZUPMFVPLQIF-UHFFFAOYSA-N

> <Salt_Solvent>


> <Salt_Solvent_ID>
0

> <MPID>
100680

> <Tr_1_Tst_0>
1

> <Ready_Biodeg>
0.0

$$$$
Row661
  Mrv171c012251911052D          

 16 17  0  0  0  0            999 V2000
    2.0521    0.1152    0.0000 O   0  0  0  0  0  0  0  0  0  0  0  0
    2.3071   -0.6694    0.0000 C   0  0  0  0  0  0  0  0  0  0  0  0
    3.0917   -0.9243    0.0000 C   0  0  0  0  0  0  0  0  0  0  0  0
    3.8062   -0.5118    0.0000 C   0  0  0  0  0  0  0  0  0  0  0  0
    4.5206   -0.9243    0.0000 C   0  0  0  0  0  0  0  0  0  0  0  0
    4.5206   -1.7493    0.0000 C   0  0  0  0  0  0  0  0  0  0  0  0
    3.8062   -2.1618    0.0000 C   0  0  0  0  0  0  0  0  0  0  0  0
    3.0917   -1.7493    0.0000 C   0  0  0  0  0  0  0  0  0  0  0  0
    2.3071   -2.0043    0.0000 C   0  0  0  0  0  0  0  0  0  0  0  0
    2.0521   -2.7889    0.0000 O   0  0  0  0  0  0  0  0  0  0  0  0
    1.8221   -1.3368    0.0000 N   0  0  0  0  0  0  0  0  0  0  0  0
    0.9971   -1.3368    0.0000 S   0  0  0  0  0  0  0  0  0  0  0  0
    0.5846   -2.0513    0.0000 C   0  0  0  0  0  0  0  0  0  0  0  0
    0.1721   -2.7658    0.0000 Cl  0  0  0  0  0  0  0  0  0  0  0  0
   -0.1298   -1.6388    0.0000 Cl  0  0  0  0  0  0  0  0  0  0  0  0
    1.2991   -2.4638    0.0000 Cl  0  0  0  0  0  0  0  0  0  0  0  0
  1  2  2  0  0  0  0
  3  2  1  0  0  0  0
  3  4  1  0  0  0  0
  4  5  1  0  0  0  0
  5  6  2  0  0  0  0
  6  7  1  0  0  0  0
  7  8  1  0  0  0  0
  8  3  1  0  0  0  0
  9  8  1  0  0  0  0
  9 10  2  0  0  0  0
 11  9  1  0  0  0  0
  2 11  1  0  0  0  0
 11 12  1  0  0  0  0
 12 13  1  0  0  0  0
 13 14  1  0  0  0  0
 13 15  1  0  0  0  0
 13 16  1  0  0  0  0
M  END
> <ChemID>
100672

> <CAS>
133-06-2

> <Original_SMILES>
O=C1C2CC=CCC2C(=O)N1SC(Cl)(Cl)Cl

> <preferred_name>
Captan

> <dsstox_substance_id>
DTXSID9020243

> <dsstox_compound_id>
DTXCID90243

> <qc_level>
DSSTox_Low

> <Canonical_QSARr>
O=C1C2CC=CCC2C(=O)N1SC(Cl)(Cl)Cl

> <InChI_Code_QSARr>
InChI=1S/C9H8Cl3NO2S/c10-9(11,12)16-13-7(14)5-3-1-2-4-6(5)8(13)15/h1-2,5-6H,3-4H2

> <InChI Key_QSARr>
LDVVMCZRFWMZSG-UHFFFAOYSA-N

> <Salt_Solvent>


> <Salt_Solvent_ID>
0

> <MPID>
100681

> <Tr_1_Tst_0>
1

> <Ready_Biodeg>
0.0

$$$$
Row662
  Mrv171c012251911052D          

 22 23  0  0  0  0            999 V2000
    3.2146   -1.8598    0.0000 O   0  0  0  0  0  0  0  0  0  0  0  0
    2.5001   -1.4473    0.0000 C   0  0  0  0  0  0  0  0  0  0  0  0
    1.7856   -1.8598    0.0000 C   0  0  0  0  0  0  0  0  0  0  0  0
    1.0712   -1.4473    0.0000 C   0  0  0  0  0  0  0  0  0  0  0  0
    0.3567   -1.8598    0.0000 C   0  0  0  0  0  0  0  0  0  0  0  0
    0.3567   -2.6848    0.0000 C   0  0  0  0  0  0  0  0  0  0  0  0
   -0.3578   -3.0973    0.0000 Cl  0  0  0  0  0  0  0  0  0  0  0  0
    1.0712   -3.0973    0.0000 C   0  0  0  0  0  0  0  0  0  0  0  0
    1.7856   -2.6848    0.0000 C   0  0  0  0  0  0  0  0  0  0  0  0
    2.5001   -3.0973    0.0000 Cl  0  0  0  0  0  0  0  0  0  0  0  0
    2.5001   -0.6223    0.0000 O   0  0  0  0  0  0  0  0  0  0  0  0
    3.9291   -1.4473    0.0000 O   0  0  0  0  0  0  0  0  0  0  0  0
    4.6435   -1.8598    0.0000 C   0  0  0  0  0  0  0  0  0  0  0  0
    5.3580   -1.4473    0.0000 C   0  0  0  0  0  0  0  0  0  0  0  0
    6.0725   -1.8598    0.0000 C   0  0  0  0  0  0  0  0  0  0  0  0
    6.7869   -1.4473    0.0000 C   0  0  0  0  0  0  0  0  0  0  0  0
    6.7869   -0.6223    0.0000 C   0  0  0  0  0  0  0  0  0  0  0  0
    7.5014   -0.2098    0.0000 Cl  0  0  0  0  0  0  0  0  0  0  0  0
    6.0725   -0.2098    0.0000 C   0  0  0  0  0  0  0  0  0  0  0  0
    5.3580   -0.6223    0.0000 C   0  0  0  0  0  0  0  0  0  0  0  0
    4.6435   -0.2098    0.0000 Cl  0  0  0  0  0  0  0  0  0  0  0  0
    4.6435   -2.6848    0.0000 O   0  0  0  0  0  0  0  0  0  0  0  0
  1  2  1  0  0  0  0
  2  3  1  0  0  0  0
  4  3  1  0  0  0  0
  5  4  2  0  0  0  0
  6  5  1  0  0  0  0
  6  7  1  0  0  0  0
  8  6  2  0  0  0  0
  9  8  1  0  0  0  0
  3  9  2  0  0  0  0
  9 10  1  0  0  0  0
  2 11  2  0  0  0  0
  1 12  1  0  0  0  0
 12 13  1  0  0  0  0
 13 14  1  0  0  0  0
 15 14  1  0  0  0  0
 16 15  2  0  0  0  0
 17 16  1  0  0  0  0
 17 18  1  0  0  0  0
 19 17  2  0  0  0  0
 20 19  1  0  0  0  0
 14 20  2  0  0  0  0
 20 21  1  0  0  0  0
 13 22  2  0  0  0  0
M  END
> <ChemID>
100673

> <CAS>
133-14-2

> <Original_SMILES>
O=C(OOC(=O)c1ccc(Cl)cc1Cl)c1ccc(Cl)cc1Cl

> <preferred_name>
Bis(2,4-dichlorophenyl)peroxyanhydride

> <dsstox_substance_id>
DTXSID4044539

> <dsstox_compound_id>
DTXCID2024539

> <qc_level>
DSSTox_High

> <Canonical_QSARr>
O=C(OOC(=O)C1C=CC(Cl)=CC=1Cl)C1C=CC(Cl)=CC=1Cl

> <InChI_Code_QSARr>
InChI=1S/C14H6Cl4O4/c15-7-1-3-9(11(17)5-7)13(19)21-22-14(20)10-4-2-8(16)6-12(10)18/h1-6H

> <InChI Key_QSARr>
WRXCBRHBHGNNQA-UHFFFAOYSA-N

> <Salt_Solvent>


> <Salt_Solvent_ID>
0

> <MPID>
100682

> <Tr_1_Tst_0>
1

> <Ready_Biodeg>
0.0

$$$$
Row663
  Mrv171c012251911052D          

 12 12  0  0  0  0            999 V2000
    2.5462   -1.1351    0.0000 Cl  0  0  0  0  0  0  0  0  0  0  0  0
    1.8317   -1.5476    0.0000 C   0  0  0  0  0  0  0  0  0  0  0  0
    1.1172   -1.1351    0.0000 C   0  0  0  0  0  0  0  0  0  0  0  0
    1.1172   -0.3101    0.0000 C   0  0  0  0  0  0  0  0  0  0  0  0
    0.4028    0.1024    0.0000 O   0  0  0  0  0  0  0  0  0  0  0  0
    1.8317    0.1024    0.0000 O   0  0  0  0  0  0  0  0  0  0  0  0
    0.4028   -1.5476    0.0000 C   0  0  0  0  0  0  0  0  0  0  0  0
    0.4028   -2.3726    0.0000 C   0  0  0  0  0  0  0  0  0  0  0  0
   -0.3117   -2.7851    0.0000 Cl  0  0  0  0  0  0  0  0  0  0  0  0
    1.1172   -2.7851    0.0000 C   0  0  0  0  0  0  0  0  0  0  0  0
    1.8317   -2.3726    0.0000 C   0  0  0  0  0  0  0  0  0  0  0  0
    2.5462   -2.7851    0.0000 N   0  0  0  0  0  0  0  0  0  0  0  0
  1  2  1  0  0  0  0
  3  2  1  0  0  0  0
  3  4  1  0  0  0  0
  4  5  1  0  0  0  0
  4  6  2  0  0  0  0
  7  3  2  0  0  0  0
  8  7  1  0  0  0  0
  8  9  1  0  0  0  0
 10  8  2  0  0  0  0
 11 10  1  0  0  0  0
  2 11  2  0  0  0  0
 11 12  1  0  0  0  0
M  END
> <ChemID>
100674

> <CAS>
133-90-4

> <Original_SMILES>
Nc1cc(Cl)cc(C(O)=O)c1Cl

> <preferred_name>
Chloramben

> <dsstox_substance_id>
DTXSID2020262

> <dsstox_compound_id>
DTXCID00262

> <qc_level>
DSSTox_High

> <Canonical_QSARr>
NC1C=C(Cl)C=C(C(O)=O)C=1Cl

> <InChI_Code_QSARr>
InChI=1S/C7H5Cl2NO2/c8-3-1-4(7(11)12)6(9)5(10)2-3/h1-2H,10H2,(H,11,12)

> <InChI Key_QSARr>
HSSBORCLYSCBJR-UHFFFAOYSA-N

> <Salt_Solvent>


> <Salt_Solvent_ID>
0

> <MPID>
100683

> <Tr_1_Tst_0>
0

> <Ready_Biodeg>
0.0

$$$$
Row664
  Mrv171c012251911052D          

 11 12  0  0  0  0            999 V2000
    1.5577   -0.8473    0.0000 C   0  0  0  0  0  0  0  0  0  0  0  0
    0.8432   -0.4348    0.0000 C   0  0  0  0  0  0  0  0  0  0  0  0
    0.1287   -0.8473    0.0000 C   0  0  0  0  0  0  0  0  0  0  0  0
    0.1287   -1.6723    0.0000 C   0  0  0  0  0  0  0  0  0  0  0  0
    0.8432   -2.0848    0.0000 C   0  0  0  0  0  0  0  0  0  0  0  0
    0.8432   -2.9098    0.0000 N   0  0  0  0  0  0  0  0  0  0  0  0
    1.5577   -1.6723    0.0000 C   0  0  0  0  0  0  0  0  0  0  0  0
    2.2721   -2.0848    0.0000 C   0  0  0  0  0  0  0  0  0  0  0  0
    2.9866   -1.6723    0.0000 C   0  0  0  0  0  0  0  0  0  0  0  0
    2.9866   -0.8473    0.0000 C   0  0  0  0  0  0  0  0  0  0  0  0
    2.2721   -0.4348    0.0000 C   0  0  0  0  0  0  0  0  0  0  0  0
  2  1  1  0  0  0  0
  3  2  2  0  0  0  0
  4  3  1  0  0  0  0
  5  4  2  0  0  0  0
  5  6  1  0  0  0  0
  7  5  1  0  0  0  0
  7  1  2  0  0  0  0
  8  7  1  0  0  0  0
  9  8  2  0  0  0  0
 10  9  1  0  0  0  0
 11 10  2  0  0  0  0
  1 11  1  0  0  0  0
M  END
> <ChemID>
100675

> <CAS>
134-32-7

> <Original_SMILES>
Nc1cccc2ccccc21

> <preferred_name>
1-Naphthylamine

> <dsstox_substance_id>
DTXSID7020920

> <dsstox_compound_id>
DTXCID30920

> <qc_level>
DSSTox_Low

> <Canonical_QSARr>
NC1=CC=CC2C=CC=CC=21

> <InChI_Code_QSARr>
InChI=1S/C10H9N/c11-10-7-3-5-8-4-1-2-6-9(8)10/h1-7H,11H2

> <InChI Key_QSARr>
RUFPHBVGCFYCNW-UHFFFAOYSA-N

> <Salt_Solvent>


> <Salt_Solvent_ID>
0

> <MPID>
100684

> <Tr_1_Tst_0>
1

> <Ready_Biodeg>
0.0

$$$$
Row665
  Mrv171c012251911052D          

 14 14  0  0  0  0            999 V2000
    3.2271   -3.2545    0.0000 C   0  0  0  0  0  0  0  0  0  0  0  0
    3.2271   -2.4295    0.0000 C   0  0  0  0  0  0  0  0  0  0  0  0
    2.5126   -2.0170    0.0000 N   0  0  0  0  0  0  0  0  0  0  0  0
    2.5126   -1.1920    0.0000 C   0  0  0  0  0  0  0  0  0  0  0  0
    1.7982   -0.7795    0.0000 C   0  0  0  0  0  0  0  0  0  0  0  0
    1.7982    0.0455    0.0000 C   0  0  0  0  0  0  0  0  0  0  0  0
    1.0837    0.4580    0.0000 C   0  0  0  0  0  0  0  0  0  0  0  0
    1.0837    1.2830    0.0000 C   0  0  0  0  0  0  0  0  0  0  0  0
    0.3692    0.0455    0.0000 C   0  0  0  0  0  0  0  0  0  0  0  0
    0.3692   -0.7795    0.0000 C   0  0  0  0  0  0  0  0  0  0  0  0
    1.0837   -1.1920    0.0000 C   0  0  0  0  0  0  0  0  0  0  0  0
    3.2271   -0.7795    0.0000 O   0  0  0  0  0  0  0  0  0  0  0  0
    1.7982   -2.4295    0.0000 C   0  0  0  0  0  0  0  0  0  0  0  0
    1.0837   -2.0170    0.0000 C   0  0  0  0  0  0  0  0  0  0  0  0
  1  2  1  0  0  0  0
  2  3  1  0  0  0  0
  3  4  1  0  0  0  0
  4  5  1  0  0  0  0
  6  5  1  0  0  0  0
  7  6  2  0  0  0  0
  7  8  1  0  0  0  0
  9  7  1  0  0  0  0
 10  9  2  0  0  0  0
 11 10  1  0  0  0  0
  5 11  2  0  0  0  0
  4 12  2  0  0  0  0
  3 13  1  0  0  0  0
 13 14  1  0  0  0  0
M  END
> <ChemID>
100676

> <CAS>
134-62-3

> <Original_SMILES>
Cc1cc(ccc1)C(=O)N(CC)CC

> <preferred_name>
DEET

> <dsstox_substance_id>
DTXSID2021995

> <dsstox_compound_id>
DTXCID601995

> <qc_level>
DSSTox_Low

> <Canonical_QSARr>
CC1C=CC=C(C=1)C(=O)N(CC)CC

> <InChI_Code_QSARr>
InChI=1S/C12H17NO/c1-4-13(5-2)12(14)11-8-6-7-10(3)9-11/h6-9H,4-5H2,1-3H3

> <InChI Key_QSARr>
MMOXZBCLCQITDF-UHFFFAOYSA-N

> <Salt_Solvent>


> <Salt_Solvent_ID>
0

> <MPID>
100685

> <Tr_1_Tst_0>
1

> <Ready_Biodeg>
0.0

$$$$
Row666
  Mrv171c012251911052D          

 15 16  0  0  0  0            999 V2000
    2.0673   -4.6243    0.0000 C   0  0  0  0  0  0  0  0  0  0  0  0
    2.0673   -5.4493    0.0000 Cl  0  0  0  0  0  0  0  0  0  0  0  0
    2.7818   -4.2118    0.0000 C   0  0  0  0  0  0  0  0  0  0  0  0
    2.7818   -3.3868    0.0000 C   0  0  0  0  0  0  0  0  0  0  0  0
    2.0673   -2.9743    0.0000 C   0  0  0  0  0  0  0  0  0  0  0  0
    2.0673   -2.1493    0.0000 C   0  0  0  0  0  0  0  0  0  0  0  0
    1.3529   -1.7368    0.0000 C   0  0  0  0  0  0  0  0  0  0  0  0
    1.3529   -0.9118    0.0000 C   0  0  0  0  0  0  0  0  0  0  0  0
    0.6384   -0.4993    0.0000 C   0  0  0  0  0  0  0  0  0  0  0  0
   -0.0761   -0.9118    0.0000 C   0  0  0  0  0  0  0  0  0  0  0  0
   -0.0761   -1.7368    0.0000 C   0  0  0  0  0  0  0  0  0  0  0  0
    0.6384   -2.1493    0.0000 C   0  0  0  0  0  0  0  0  0  0  0  0
    2.7818   -1.7368    0.0000 Cl  0  0  0  0  0  0  0  0  0  0  0  0
    1.3529   -3.3868    0.0000 C   0  0  0  0  0  0  0  0  0  0  0  0
    1.3529   -4.2118    0.0000 C   0  0  0  0  0  0  0  0  0  0  0  0
  1  2  1  0  0  0  0
  3  1  1  0  0  0  0
  4  3  2  0  0  0  0
  5  4  1  0  0  0  0
  5  6  1  0  0  0  0
  6  7  1  0  0  0  0
  8  7  1  0  0  0  0
  9  8  2  0  0  0  0
 10  9  1  0  0  0  0
 11 10  2  0  0  0  0
 12 11  1  0  0  0  0
  7 12  2  0  0  0  0
  6 13  1  0  0  0  0
 14  5  2  0  0  0  0
 15 14  1  0  0  0  0
  1 15  2  0  0  0  0
M  END
> <ChemID>
100677

> <CAS>
134-83-8

> <Original_SMILES>
Clc1ccc(cc1)C(Cl)c1ccccc1

> <preferred_name>


> <dsstox_substance_id>
DTXSID80874382

> <dsstox_compound_id>
DTXCID001012509

> <qc_level>


> <Canonical_QSARr>
ClC1C=CC(=CC=1)C(Cl)C1C=CC=CC=1

> <InChI_Code_QSARr>
InChI=1S/C13H10Cl2/c14-12-8-6-11(7-9-12)13(15)10-4-2-1-3-5-10/h1-9,13H

> <InChI Key_QSARr>
ALKWTKGPKKAZMN-UHFFFAOYSA-N

> <Salt_Solvent>


> <Salt_Solvent_ID>
0

> <MPID>
100686

> <Tr_1_Tst_0>
1

> <Ready_Biodeg>
0.0

$$$$
Row667
  Mrv171c012251911052D          

 13 13  0  0  0  0            999 V2000
    2.7480    0.7615    0.0000 C   0  0  0  0  0  0  0  0  0  0  0  0
    2.0335    1.1740    0.0000 O   0  0  0  0  0  0  0  0  0  0  0  0
    1.3190    0.7615    0.0000 C   0  0  0  0  0  0  0  0  0  0  0  0
    0.6045    1.1740    0.0000 C   0  0  0  0  0  0  0  0  0  0  0  0
    0.6045    1.9990    0.0000 O   0  0  0  0  0  0  0  0  0  0  0  0
   -0.1099    0.7615    0.0000 C   0  0  0  0  0  0  0  0  0  0  0  0
   -0.8244    1.1740    0.0000 O   0  0  0  0  0  0  0  0  0  0  0  0
   -1.5389    0.7615    0.0000 C   0  0  0  0  0  0  0  0  0  0  0  0
   -0.1099   -0.0635    0.0000 C   0  0  0  0  0  0  0  0  0  0  0  0
    0.6045   -0.4760    0.0000 C   0  0  0  0  0  0  0  0  0  0  0  0
    0.6045   -1.3010    0.0000 C   0  0  0  0  0  0  0  0  0  0  0  0
    1.3190   -1.7135    0.0000 O   0  0  0  0  0  0  0  0  0  0  0  0
    1.3190   -0.0635    0.0000 C   0  0  0  0  0  0  0  0  0  0  0  0
  1  2  1  0  0  0  0
  2  3  1  0  0  0  0
  4  3  1  0  0  0  0
  4  5  1  0  0  0  0
  6  4  2  0  0  0  0
  6  7  1  0  0  0  0
  7  8  1  0  0  0  0
  9  6  1  0  0  0  0
 10  9  2  0  0  0  0
 10 11  1  0  0  0  0
 11 12  2  0  0  0  0
 13 10  1  0  0  0  0
  3 13  2  0  0  0  0
M  END
> <ChemID>
100678

> <CAS>
134-96-3

> <Original_SMILES>
COc1cc(C=O)cc(OC)c1O

> <preferred_name>
Syringaldehyde

> <dsstox_substance_id>
DTXSID2059643

> <dsstox_compound_id>
DTXCID6034182

> <qc_level>
Public_High

> <Canonical_QSARr>
COC1=CC(C=O)=CC(OC)=C1O

> <InChI_Code_QSARr>
InChI=1S/C9H10O4/c1-12-7-3-6(5-10)4-8(13-2)9(7)11/h3-5,11H,1-2H3

> <InChI Key_QSARr>
KCDXJAYRVLXPFO-UHFFFAOYSA-N

> <Salt_Solvent>


> <Salt_Solvent_ID>
0

> <MPID>
100687

> <Tr_1_Tst_0>
0

> <Ready_Biodeg>
1.0

$$$$
Row668
  Mrv171c012251911052D          

 10 10  0  0  0  0            999 V2000
    1.5706   -1.6480    0.0000 C   0  0  0  0  0  0  0  0  0  0  0  0
    2.2851   -1.2355    0.0000 C   0  0  0  0  0  0  0  0  0  0  0  0
    2.9996   -1.6480    0.0000 C   0  0  0  0  0  0  0  0  0  0  0  0
    0.8562   -1.2355    0.0000 C   0  0  0  0  0  0  0  0  0  0  0  0
    0.8562   -0.4105    0.0000 C   0  0  0  0  0  0  0  0  0  0  0  0
    0.1417    0.0020    0.0000 C   0  0  0  0  0  0  0  0  0  0  0  0
    0.1417   -1.6480    0.0000 C   0  0  0  0  0  0  0  0  0  0  0  0
    0.1417   -2.4730    0.0000 C   0  0  0  0  0  0  0  0  0  0  0  0
    0.8562   -2.8855    0.0000 C   0  0  0  0  0  0  0  0  0  0  0  0
    1.5706   -2.4730    0.0000 C   0  0  0  0  0  0  0  0  0  0  0  0
  1  2  1  0  0  0  0
  2  3  1  0  0  0  0
  4  1  1  0  0  0  0
  4  5  1  0  0  0  0
  5  6  1  0  0  0  0
  7  4  2  0  0  0  0
  8  7  1  0  0  0  0
  9  8  2  0  0  0  0
 10  9  1  0  0  0  0
  1 10  2  0  0  0  0
M  END
> <ChemID>
100679

> <CAS>
135-01-3

> <Original_SMILES>
CCc1ccccc1CC

> <preferred_name>
o-Diethylbenzene

> <dsstox_substance_id>
DTXSID6052742

> <dsstox_compound_id>
DTXCID507866

> <qc_level>
DSSTox_Low

> <Canonical_QSARr>
CCC1=CC=CC=C1CC

> <InChI_Code_QSARr>
InChI=1S/C10H14/c1-3-9-7-5-6-8-10(9)4-2/h5-8H,3-4H2,1-2H3

> <InChI Key_QSARr>
KVNYFPKFSJIPBJ-UHFFFAOYSA-N

> <Salt_Solvent>


> <Salt_Solvent_ID>
0

> <MPID>
100688

> <Tr_1_Tst_0>
1

> <Ready_Biodeg>
0.0

$$$$
Row669
  Mrv171c012251911052D          

 11 12  0  0  0  0            999 V2000
    1.8238   -0.4135    0.0000 C   0  0  0  0  0  0  0  0  0  0  0  0
    1.1094   -0.0010    0.0000 C   0  0  0  0  0  0  0  0  0  0  0  0
    0.3949   -0.4135    0.0000 C   0  0  0  0  0  0  0  0  0  0  0  0
   -0.3196   -0.0010    0.0000 O   0  0  0  0  0  0  0  0  0  0  0  0
    0.3949   -1.2385    0.0000 C   0  0  0  0  0  0  0  0  0  0  0  0
    1.1094   -1.6510    0.0000 C   0  0  0  0  0  0  0  0  0  0  0  0
    1.8238   -1.2385    0.0000 C   0  0  0  0  0  0  0  0  0  0  0  0
    2.5383   -1.6510    0.0000 C   0  0  0  0  0  0  0  0  0  0  0  0
    3.2528   -1.2385    0.0000 C   0  0  0  0  0  0  0  0  0  0  0  0
    3.2528   -0.4135    0.0000 C   0  0  0  0  0  0  0  0  0  0  0  0
    2.5383   -0.0010    0.0000 C   0  0  0  0  0  0  0  0  0  0  0  0
  2  1  1  0  0  0  0
  3  2  2  0  0  0  0
  3  4  1  0  0  0  0
  5  3  1  0  0  0  0
  6  5  2  0  0  0  0
  7  6  1  0  0  0  0
  7  1  2  0  0  0  0
  8  7  1  0  0  0  0
  9  8  2  0  0  0  0
 10  9  1  0  0  0  0
 11 10  2  0  0  0  0
  1 11  1  0  0  0  0
M  END
> <ChemID>
100680

> <CAS>
135-19-3

> <Original_SMILES>
Oc1cc2ccccc2cc1

> <preferred_name>
2-Naphthalenol

> <dsstox_substance_id>
DTXSID5027061

> <dsstox_compound_id>
DTXCID907061

> <qc_level>
DSSTox_Low

> <Canonical_QSARr>
OC1=CC2C=CC=CC=2C=C1

> <InChI_Code_QSARr>
InChI=1S/C10H8O/c11-10-6-5-8-3-1-2-4-9(8)7-10/h1-7,11H

> <InChI Key_QSARr>
JWAZRIHNYRIHIV-UHFFFAOYSA-N

> <Salt_Solvent>


> <Salt_Solvent_ID>
0

> <MPID>
100689

> <Tr_1_Tst_0>
1

> <Ready_Biodeg>
1.0

$$$$
Row670
  Mrv171c012251911052D          

 22 26  0  0  0  0            999 V2000
    4.2868   -0.0000    0.0000 C   0  0  0  0  0  0  0  0  0  0  0  0
    5.0013   -0.4125    0.0000 C   0  0  0  0  0  0  0  0  0  0  0  0
    5.7158   -0.0000    0.0000 C   0  0  0  0  0  0  0  0  0  0  0  0
    5.7158    0.8250    0.0000 C   0  0  0  0  0  0  0  0  0  0  0  0
    6.4302    1.2375    0.0000 C   0  0  0  0  0  0  0  0  0  0  0  0
    7.1447    0.8250    0.0000 C   0  0  0  0  0  0  0  0  0  0  0  0
    7.1447    0.0000    0.0000 C   0  0  0  0  0  0  0  0  0  0  0  0
    6.4302   -0.4125    0.0000 C   0  0  0  0  0  0  0  0  0  0  0  0
    5.0013    1.2375    0.0000 C   0  0  0  0  0  0  0  0  0  0  0  0
    4.2868    0.8250    0.0000 C   0  0  0  0  0  0  0  0  0  0  0  0
    3.5724    1.2375    0.0000 C   0  0  0  0  0  0  0  0  0  0  0  0
    2.8579    0.8250    0.0000 C   0  0  0  0  0  0  0  0  0  0  0  0
    2.8579    0.0000    0.0000 C   0  0  0  0  0  0  0  0  0  0  0  0
    2.1434   -0.4125    0.0000 C   0  0  0  0  0  0  0  0  0  0  0  0
    1.4289   -0.0000    0.0000 C   0  0  0  0  0  0  0  0  0  0  0  0
    1.4289    0.8250    0.0000 C   0  0  0  0  0  0  0  0  0  0  0  0
    2.1434    1.2375    0.0000 C   0  0  0  0  0  0  0  0  0  0  0  0
    0.7145    1.2375    0.0000 C   0  0  0  0  0  0  0  0  0  0  0  0
    0.0000    0.8250    0.0000 C   0  0  0  0  0  0  0  0  0  0  0  0
    0.0000    0.0000    0.0000 C   0  0  0  0  0  0  0  0  0  0  0  0
    0.7145   -0.4125    0.0000 C   0  0  0  0  0  0  0  0  0  0  0  0
    3.5724   -0.4125    0.0000 C   0  0  0  0  0  0  0  0  0  0  0  0
  2  1  1  0  0  0  0
  3  2  2  0  0  0  0
  3  4  1  0  0  0  0
  4  5  1  0  0  0  0
  5  6  2  0  0  0  0
  6  7  1  0  0  0  0
  7  8  2  0  0  0  0
  8  3  1  0  0  0  0
  9  4  2  0  0  0  0
 10  9  1  0  0  0  0
 10  1  1  0  0  0  0
 11 10  2  0  0  0  0
 12 11  1  0  0  0  0
 12 13  1  0  0  0  0
 13 14  2  0  0  0  0
 14 15  1  0  0  0  0
 16 15  1  0  0  0  0
 16 17  1  0  0  0  0
 17 12  2  0  0  0  0
 18 16  2  0  0  0  0
 19 18  1  0  0  0  0
 20 19  2  0  0  0  0
 21 20  1  0  0  0  0
 15 21  2  0  0  0  0
 22 13  1  0  0  0  0
  1 22  2  0  0  0  0
M  END
> <ChemID>
100681

> <CAS>
135-48-8

> <Original_SMILES>
c1c2cc3cc4ccccc4cc3cc2cc2ccccc21

> <preferred_name>
Pentacene

> <dsstox_substance_id>
DTXSID7059648

> <dsstox_compound_id>
DTXCID4034281

> <qc_level>
Public_High

> <Canonical_QSARr>
C1=C2C=C3C=C4C=CC=CC4=CC3=CC2=CC2=CC=CC=C21

> <InChI_Code_QSARr>
InChI=1S/C22H14/c1-2-6-16-10-20-14-22-12-18-8-4-3-7-17(18)11-21(22)13-19(20)9-15(16)5-1/h1-14H

> <InChI Key_QSARr>
SLIUAWYAILUBJU-UHFFFAOYSA-N

> <Salt_Solvent>


> <Salt_Solvent_ID>
0

> <MPID>
100690

> <Tr_1_Tst_0>
1

> <Ready_Biodeg>
0.0

$$$$
Row671
  Mrv171c012251911052D          

 17 19  0  0  0  0            999 V2000
    3.5741   -1.6515    0.0000 C   0  0  0  0  0  0  0  0  0  0  0  0
    2.8596   -1.2390    0.0000 C   0  0  0  0  0  0  0  0  0  0  0  0
    2.1452   -1.6515    0.0000 N   0  0  0  0  0  0  0  0  0  0  0  0
    1.4307   -1.2390    0.0000 C   0  0  0  0  0  0  0  0  0  0  0  0
    1.4307   -0.4140    0.0000 C   0  0  0  0  0  0  0  0  0  0  0  0
    0.7162   -0.0015    0.0000 C   0  0  0  0  0  0  0  0  0  0  0  0
    0.0018   -0.4140    0.0000 C   0  0  0  0  0  0  0  0  0  0  0  0
    0.0018   -1.2390    0.0000 C   0  0  0  0  0  0  0  0  0  0  0  0
    0.7162   -1.6515    0.0000 C   0  0  0  0  0  0  0  0  0  0  0  0
    2.8596   -0.4140    0.0000 C   0  0  0  0  0  0  0  0  0  0  0  0
    3.5741   -0.0015    0.0000 C   0  0  0  0  0  0  0  0  0  0  0  0
    4.2886   -0.4140    0.0000 C   0  0  0  0  0  0  0  0  0  0  0  0
    5.0031   -0.0015    0.0000 C   0  0  0  0  0  0  0  0  0  0  0  0
    5.7175   -0.4140    0.0000 C   0  0  0  0  0  0  0  0  0  0  0  0
    5.7175   -1.2390    0.0000 C   0  0  0  0  0  0  0  0  0  0  0  0
    5.0031   -1.6515    0.0000 C   0  0  0  0  0  0  0  0  0  0  0  0
    4.2886   -1.2390    0.0000 C   0  0  0  0  0  0  0  0  0  0  0  0
  2  1  1  0  0  0  0
  2  3  1  0  0  0  0
  3  4  1  0  0  0  0
  5  4  1  0  0  0  0
  6  5  2  0  0  0  0
  7  6  1  0  0  0  0
  8  7  2  0  0  0  0
  9  8  1  0  0  0  0
  4  9  2  0  0  0  0
 10  2  2  0  0  0  0
 11 10  1  0  0  0  0
 12 11  2  0  0  0  0
 12 13  1  0  0  0  0
 13 14  2  0  0  0  0
 14 15  1  0  0  0  0
 15 16  2  0  0  0  0
 16 17  1  0  0  0  0
  1 17  2  0  0  0  0
 17 12  1  0  0  0  0
M  END
> <ChemID>
100682

> <CAS>
135-88-6

> <Original_SMILES>
c1c(ccc2ccccc21)Nc1ccccc1

> <preferred_name>
N-Phenyl-2-naphthylamine

> <dsstox_substance_id>
DTXSID4021131

> <dsstox_compound_id>
DTXCID601131

> <qc_level>
DSSTox_Low

> <Canonical_QSARr>
C1C(=CC=C2C=CC=CC2=1)NC1C=CC=CC=1

> <InChI_Code_QSARr>
InChI=1S/C16H13N/c1-2-8-15(9-3-1)17-16-11-10-13-6-4-5-7-14(13)12-16/h1-12,17H

> <InChI Key_QSARr>
KEQFTVQCIQJIQW-UHFFFAOYSA-N

> <Salt_Solvent>


> <Salt_Solvent_ID>
0

> <MPID>
100691

> <Tr_1_Tst_0>
0

> <Ready_Biodeg>
0.0

$$$$
Row672
  Mrv171c012251911052D          

 18 17  0  0  0  0            999 V2000
    2.9641   -2.6788    0.0000 C   0  0  0  0  0  0  0  0  0  0  0  0
    3.1200   -3.4889    0.0000 O   0  0  0  0  0  0  0  0  0  0  0  0
    2.1845   -2.4087    0.0000 N   0  0  0  0  0  0  0  0  0  0  0  0
    1.5609   -2.9488    0.0000 C   0  0  0  0  0  0  0  0  0  0  0  0
    0.7814   -2.6788    0.0000 C   0  0  0  0  0  0  0  0  0  0  0  0
    0.1577   -3.2189    0.0000 O   0  0  0  0  0  0  0  0  0  0  0  0
    2.0286   -1.5986    0.0000 C   0  0  0  0  0  0  0  0  0  0  0  0
    1.2491   -1.3286    0.0000 C   0  0  0  0  0  0  0  0  0  0  0  0
    1.0932   -0.5184    0.0000 O   0  0  0  0  0  0  0  0  0  0  0  0
    3.5877   -2.1387    0.0000 C   0  0  0  0  0  0  0  0  0  0  0  0
    4.3673   -2.4087    0.0000 C   0  0  0  0  0  0  0  0  0  0  0  0
    4.9909   -1.8686    0.0000 C   0  0  0  0  0  0  0  0  0  0  0  0
    5.7705   -2.1387    0.0000 C   0  0  0  0  0  0  0  0  0  0  0  0
    6.3941   -1.5986    0.0000 C   0  0  0  0  0  0  0  0  0  0  0  0
    7.1737   -1.8686    0.0000 C   0  0  0  0  0  0  0  0  0  0  0  0
    7.7973   -1.3286    0.0000 C   0  0  0  0  0  0  0  0  0  0  0  0
    8.5769   -1.5986    0.0000 C   0  0  0  0  0  0  0  0  0  0  0  0
    9.2005   -1.0585    0.0000 C   0  0  0  0  0  0  0  0  0  0  0  0
  1  2  2  0  0  0  0
  1  3  1  0  0  0  0
  3  4  1  0  0  0  0
  4  5  1  0  0  0  0
  5  6  1  0  0  0  0
  3  7  1  0  0  0  0
  7  8  1  0  0  0  0
  8  9  1  0  0  0  0
  1 10  1  0  0  0  0
 10 11  1  0  0  0  0
 11 12  1  0  0  0  0
 12 13  1  0  0  0  0
 13 14  1  0  0  0  0
 14 15  1  0  0  0  0
 15 16  1  0  0  0  0
 16 17  1  0  0  0  0
 17 18  1  0  0  0  0
M  END
> <ChemID>
100683

> <CAS>
136-26-5

> <Original_SMILES>
CCCCCCCCCC(=O)N(CCO)CCO

> <preferred_name>
N,N-Bis(2-hydroxyethyl)decanamide

> <dsstox_substance_id>
DTXSID3042184

> <dsstox_compound_id>
DTXCID1022184

> <qc_level>
DSSTox_Low

> <Canonical_QSARr>
CCCCCCCCCC(=O)N(CCO)CCO

> <InChI_Code_QSARr>
InChI=1S/C14H29NO3/c1-2-3-4-5-6-7-8-9-14(18)15(10-12-16)11-13-17/h16-17H,2-13H2,1H3

> <InChI Key_QSARr>
BPXGKRUSMCVZAF-UHFFFAOYSA-N

> <Salt_Solvent>


> <Salt_Solvent_ID>
0

> <MPID>
100692

> <Tr_1_Tst_0>
1

> <Ready_Biodeg>
1.0

$$$$
Row673
  Mrv171c012251911052D          

 18 18  0  0  0  0            999 V2000
    5.4971   -4.3072    0.0000 O   0  0  0  0  0  0  0  0  0  0  0  0
    5.4971   -3.4822    0.0000 C   0  0  0  0  0  0  0  0  0  0  0  0
    4.7826   -3.0697    0.0000 O   0  0  0  0  0  0  0  0  0  0  0  0
    4.0681   -3.4822    0.0000 C   0  0  0  0  0  0  0  0  0  0  0  0
    3.3537   -3.0697    0.0000 C   0  0  0  0  0  0  0  0  0  0  0  0
    2.6392   -3.4822    0.0000 C   0  0  0  0  0  0  0  0  0  0  0  0
    6.2116   -3.0697    0.0000 C   0  0  0  0  0  0  0  0  0  0  0  0
    6.9260   -3.4822    0.0000 C   0  0  0  0  0  0  0  0  0  0  0  0
    7.6405   -3.0697    0.0000 C   0  0  0  0  0  0  0  0  0  0  0  0
    7.6405   -2.2447    0.0000 C   0  0  0  0  0  0  0  0  0  0  0  0
    8.3550   -1.8322    0.0000 C   0  0  0  0  0  0  0  0  0  0  0  0
    9.0694   -2.2447    0.0000 O   0  0  0  0  0  0  0  0  0  0  0  0
    9.7839   -1.8322    0.0000 C   0  0  0  0  0  0  0  0  0  0  0  0
   10.4984   -2.2447    0.0000 C   0  0  0  0  0  0  0  0  0  0  0  0
   11.2129   -1.8322    0.0000 C   0  0  0  0  0  0  0  0  0  0  0  0
    8.3550   -1.0072    0.0000 O   0  0  0  0  0  0  0  0  0  0  0  0
    6.9260   -1.8322    0.0000 N   0  0  0  0  0  0  0  0  0  0  0  0
    6.2116   -2.2447    0.0000 C   0  0  0  0  0  0  0  0  0  0  0  0
  1  2  2  0  0  0  0
  2  3  1  0  0  0  0
  3  4  1  0  0  0  0
  4  5  1  0  0  0  0
  5  6  1  0  0  0  0
  2  7  1  0  0  0  0
  8  7  2  0  0  0  0
  9  8  1  0  0  0  0
 10  9  2  0  0  0  0
 10 11  1  0  0  0  0
 11 12  1  0  0  0  0
 12 13  1  0  0  0  0
 13 14  1  0  0  0  0
 14 15  1  0  0  0  0
 11 16  2  0  0  0  0
 17 10  1  0  0  0  0
 18 17  2  0  0  0  0
  7 18  1  0  0  0  0
M  END
> <ChemID>
100684

> <CAS>
136-45-8

> <Original_SMILES>
CCCOC(=O)c1c[n]c(cc1)C(=O)OCCC

> <preferred_name>
Dipropyl 2,5-pyridinedicarboxylate

> <dsstox_substance_id>
DTXSID8032544

> <dsstox_compound_id>
DTXCID6012544

> <qc_level>
DSSTox_High

> <Canonical_QSARr>
CCCOC(=O)C1C=NC(=CC=1)C(=O)OCCC

> <InChI_Code_QSARr>
InChI=1S/C13H17NO4/c1-3-7-17-12(15)10-5-6-11(14-9-10)13(16)18-8-4-2/h5-6,9H,3-4,7-8H2,1-2H3

> <InChI Key_QSARr>
IITCWRFYJWUUPC-UHFFFAOYSA-N

> <Salt_Solvent>


> <Salt_Solvent_ID>
0

> <MPID>
100693

> <Tr_1_Tst_0>
1

> <Ready_Biodeg>
0.0

$$$$
Row674
  Mrv171c012251911052D          

 27 26  0  0  0  0            999 V2000
    1.3776    9.0454    0.0000 C   0  0  0  0  0  0  0  0  0  0  0  0
    1.3776    8.2204    0.0000 C   0  0  0  0  0  0  0  0  0  0  0  0
    2.0921    7.8079    0.0000 C   0  0  0  0  0  0  0  0  0  0  0  0
    2.0921    6.9829    0.0000 C   0  0  0  0  0  0  0  0  0  0  0  0
    2.8066    6.5704    0.0000 C   0  0  0  0  0  0  0  0  0  0  0  0
    2.8066    5.7454    0.0000 C   0  0  0  0  0  0  0  0  0  0  0  0
    3.5211    5.3329    0.0000 C   0  0  0  0  0  0  0  0  0  0  0  0
    3.5211    4.5079    0.0000 C   0  0  0  0  0  0  0  0  0  0  0  0
    4.2355    4.0954    0.0000 C   0  0  0  0  0  0  0  0  0  0  0  0
    4.2355    3.2704    0.0000 C   0  0  0  0  0  0  0  0  0  0  0  0
    4.9500    2.8579    0.0000 C   0  0  0  0  0  0  0  0  0  0  0  0
    5.6645    3.2704    0.0000 C   0  0  0  0  0  0  0  0  0  0  0  0
    6.3789    2.8579    0.0000 C   0  0  0  0  0  0  0  0  0  0  0  0
    7.0934    3.2704    0.0000 C   0  0  0  0  0  0  0  0  0  0  0  0
    7.8079    2.8579    0.0000 C   0  0  0  0  0  0  0  0  0  0  0  0
    8.5224    3.2704    0.0000 C   0  0  0  0  0  0  0  0  0  0  0  0
    9.2368    2.8579    0.0000 C   0  0  0  0  0  0  0  0  0  0  0  0
    9.9513    3.2704    0.0000 C   0  0  0  0  0  0  0  0  0  0  0  0
    9.9513    4.0954    0.0000 O   0  0  0  0  0  0  0  0  0  0  0  0
   10.6658    2.8579    0.0000 N   0  0  0  0  0  0  0  0  0  0  0  0
   10.6658    2.0329    0.0000 C   0  0  0  0  0  0  0  0  0  0  0  0
   11.3802    3.2704    0.0000 C   0  0  0  0  0  0  0  0  0  0  0  0
   12.0947    2.8579    0.0000 C   0  0  0  0  0  0  0  0  0  0  0  0
   12.8092    3.2704    0.0000 S   0  0  0  0  0  0  0  0  0  0  0  0
   13.5237    3.6829    0.0000 O   0  0  0  0  0  0  0  0  0  0  0  0
   13.2217    2.5559    0.0000 O   0  0  0  0  0  0  0  0  0  0  0  0
   12.3967    3.9849    0.0000 O   0  0  0  0  0  0  0  0  0  0  0  0
  1  2  1  0  0  0  0
  2  3  1  0  0  0  0
  3  4  1  0  0  0  0
  4  5  1  0  0  0  0
  5  6  1  0  0  0  0
  6  7  1  0  0  0  0
  7  8  1  0  0  0  0
  9  8  1  4  0  0  0
  9 10  2  0  0  0  0
 10 11  1  0  0  0  0
 11 12  1  0  0  0  0
 12 13  1  0  0  0  0
 13 14  1  0  0  0  0
 14 15  1  0  0  0  0
 15 16  1  0  0  0  0
 16 17  1  0  0  0  0
 17 18  1  0  0  0  0
 18 19  2  0  0  0  0
 18 20  1  0  0  0  0
 20 21  1  0  0  0  0
 20 22  1  0  0  0  0
 22 23  1  0  0  0  0
 23 24  1  0  0  0  0
 24 25  1  0  0  0  0
 24 26  2  0  0  0  0
 24 27  2  0  0  0  0
M  END
> <ChemID>
100685

> <CAS>
137-20-2

> <Original_SMILES>
[Na+].CCCCCCCC/C=C\CCCCCCCC(=O)N(C)CCS([O-])(=O)=O

> <preferred_name>
Sodium N-methyl-N-oleoyltaurate

> <dsstox_substance_id>
DTXSID5027067

> <dsstox_compound_id>
DTXCID307067

> <qc_level>
DSSTox_Low

> <Canonical_QSARr>
CCCCCCCCC=CCCCCCCCC(=O)N(C)CCS(O)(=O)=O

> <InChI_Code_QSARr>
InChI=1S/C21H41NO4S/c1-3-4-5-6-7-8-9-10-11-12-13-14-15-16-17-18-21(23)22(2)19-20-27(24,25)26/h10-11H,3-9,12-20H2,1-2H3,(H,24,25,26)

> <InChI Key_QSARr>
GXJQMKFJQFGQKV-UHFFFAOYSA-N

> <Salt_Solvent>
[Na+]

> <Salt_Solvent_ID>
110

> <MPID>
100694

> <Tr_1_Tst_0>
0

> <Ready_Biodeg>
1.0

$$$$
Row675
  Mrv171c012251911052D          

 12 11  0  0  0  0            999 V2000
    3.3960   -0.1034    0.0000 S   0  0  0  0  0  0  0  0  0  0  0  0
    3.3960   -0.9284    0.0000 C   0  0  0  0  0  0  0  0  0  0  0  0
    2.6816   -1.3409    0.0000 S   0  0  0  0  0  0  0  0  0  0  0  0
    1.9671   -0.9284    0.0000 S   0  0  0  0  0  0  0  0  0  0  0  0
    1.2526   -1.3409    0.0000 C   0  0  0  0  0  0  0  0  0  0  0  0
    0.5381   -0.9284    0.0000 N   0  0  0  0  0  0  0  0  0  0  0  0
   -0.1763   -1.3409    0.0000 C   0  0  0  0  0  0  0  0  0  0  0  0
    0.5381   -0.1034    0.0000 C   0  0  0  0  0  0  0  0  0  0  0  0
    1.2526   -2.1659    0.0000 S   0  0  0  0  0  0  0  0  0  0  0  0
    4.1105   -1.3409    0.0000 N   0  0  0  0  0  0  0  0  0  0  0  0
    4.8250   -0.9284    0.0000 C   0  0  0  0  0  0  0  0  0  0  0  0
    4.1105   -2.1659    0.0000 C   0  0  0  0  0  0  0  0  0  0  0  0
  1  2  2  0  0  0  0
  2  3  1  0  0  0  0
  3  4  1  0  0  0  0
  4  5  1  0  0  0  0
  5  6  1  0  0  0  0
  6  7  1  0  0  0  0
  6  8  1  0  0  0  0
  5  9  2  0  0  0  0
  2 10  1  0  0  0  0
 10 11  1  0  0  0  0
 10 12  1  0  0  0  0
M  END
> <ChemID>
100686

> <CAS>
137-26-8

> <Original_SMILES>
CN(C)C(=S)SSC(=S)N(C)C

> <preferred_name>
Thiram

> <dsstox_substance_id>
DTXSID5021332

> <dsstox_compound_id>
DTXCID401332

> <qc_level>
DSSTox_Low

> <Canonical_QSARr>
CN(C)C(=S)SSC(=S)N(C)C

> <InChI_Code_QSARr>
InChI=1S/C6H12N2S4/c1-7(2)5(9)11-12-6(10)8(3)4/h1-4H3

> <InChI Key_QSARr>
KUAZQDVKQLNFPE-UHFFFAOYSA-N

> <Salt_Solvent>


> <Salt_Solvent_ID>
0

> <MPID>
100695

> <Tr_1_Tst_0>
1

> <Ready_Biodeg>
1.0

$$$$
Row676
  Mrv171c012251911052D          

 13 13  0  0  0  0            999 V2000
    0.7145   -0.1586    0.0000 C   0  0  0  0  0  0  0  0  0  0  0  0
    0.7145   -0.9836    0.0000 S   0  0  0  0  0  0  0  0  0  0  0  0
    0.7145   -1.8086    0.0000 O   0  0  0  0  0  0  0  0  0  0  0  0
    1.5395   -0.9836    0.0000 O   0  0  0  0  0  0  0  0  0  0  0  0
   -0.1105   -0.9836    0.0000 O   0  0  0  0  0  0  0  0  0  0  0  0
    1.4289    0.2539    0.0000 C   0  0  0  0  0  0  0  0  0  0  0  0
    1.4289    1.0789    0.0000 C   0  0  0  0  0  0  0  0  0  0  0  0
    0.7145    1.4914    0.0000 C   0  0  0  0  0  0  0  0  0  0  0  0
    0.7145    2.3164    0.0000 N   0  3  0  0  0  0  0  0  0  0  0  0
   -0.0000    2.7289    0.0000 O   0  5  0  0  0  0  0  0  0  0  0  0
    1.4289    2.7289    0.0000 O   0  0  0  0  0  0  0  0  0  0  0  0
   -0.0000    1.0789    0.0000 C   0  0  0  0  0  0  0  0  0  0  0  0
   -0.0000    0.2539    0.0000 C   0  0  0  0  0  0  0  0  0  0  0  0
  1  2  1  0  0  0  0
  2  3  2  0  0  0  0
  2  4  2  0  0  0  0
  2  5  1  0  0  0  0
  6  1  1  0  0  0  0
  7  6  2  0  0  0  0
  8  7  1  0  0  0  0
  8  9  1  0  0  0  0
  9 10  1  0  0  0  0
  9 11  2  0  0  0  0
 12  8  2  0  0  0  0
 13 12  1  0  0  0  0
  1 13  2  0  0  0  0
M  CHG  2   9   1  10  -1
M  END
> <ChemID>
100687

> <CAS>
138-42-1

> <Original_SMILES>
[O-][N+](=O)c1ccc(cc1)S(O)(=O)=O

> <preferred_name>
Benzenesulfonic acid, 4-nitro-

> <dsstox_substance_id>
DTXSID3059682

> <dsstox_compound_id>
DTXCID7034462

> <qc_level>
Public_High

> <Canonical_QSARr>
[O-][N+](=O)C1C=CC(=CC=1)S(O)(=O)=O

> <InChI_Code_QSARr>
InChI=1S/C6H5NO5S/c8-7(9)5-1-3-6(4-2-5)13(10,11)12/h1-4H,(H,10,11,12)

> <InChI Key_QSARr>
SPXOTSHWBDUUMT-UHFFFAOYSA-N

> <Salt_Solvent>


> <Salt_Solvent_ID>
0

> <MPID>
100696

> <Tr_1_Tst_0>
0

> <Ready_Biodeg>
0.0

$$$$
Row677
  Mrv171c012251911052D          

 10 10  0  0  0  0            999 V2000
    0.7154   -3.2965    0.0000 C   0  0  0  0  0  0  0  0  0  0  0  0
    0.7154   -4.1215    0.0000 C   0  0  0  0  0  0  0  0  0  0  0  0
    1.4298   -2.8840    0.0000 C   0  0  0  0  0  0  0  0  0  0  0  0
    1.4298   -2.0590    0.0000 C   0  0  0  0  0  0  0  0  0  0  0  0
    0.7154   -1.6465    0.0000 C   0  0  0  0  0  0  0  0  0  0  0  0
    0.7154   -0.8215    0.0000 C   0  0  0  0  0  0  0  0  0  0  0  0
    0.0009   -0.4090    0.0000 C   0  0  0  0  0  0  0  0  0  0  0  0
    1.4298   -0.4090    0.0000 C   0  0  0  0  0  0  0  0  0  0  0  0
    0.0009   -2.0590    0.0000 C   0  0  0  0  0  0  0  0  0  0  0  0
    0.0009   -2.8840    0.0000 C   0  0  0  0  0  0  0  0  0  0  0  0
  1  2  1  0  0  0  0
  3  1  1  0  0  0  0
  4  3  1  0  0  0  0
  5  4  1  0  0  0  0
  5  6  1  0  0  0  0
  6  7  1  0  0  0  0
  6  8  2  0  0  0  0
  9  5  1  0  0  0  0
 10  9  1  0  0  0  0
  1 10  2  0  0  0  0
M  END
> <ChemID>
100688

> <CAS>
138-86-3

> <Original_SMILES>
CC1CCC(CC=1)C(C)=C

> <preferred_name>
Limonene

> <dsstox_substance_id>
DTXSID2029612

> <dsstox_compound_id>
DTXCID209612

> <qc_level>
DSSTox_Low

> <Canonical_QSARr>
CC1CCC(CC=1)C(C)=C

> <InChI_Code_QSARr>
InChI=1S/C10H16/c1-8(2)10-6-4-9(3)5-7-10/h4,10H,1,5-7H2,2-3H3

> <InChI Key_QSARr>
XMGQYMWWDOXHJM-UHFFFAOYSA-N

> <Salt_Solvent>


> <Salt_Solvent_ID>
0

> <MPID>
100697

> <Tr_1_Tst_0>
1

> <Ready_Biodeg>
1.0

$$$$
Row678
  Mrv171c001112021182D          

 22 22  0  0  0  0            999 V2000
    0.0001    0.1557    0.0000 N   0  3  0  0  0  0  0  0  0  0  0  0
    0.7145   -0.2568    0.0000 C   0  0  0  0  0  0  0  0  0  0  0  0
    1.4290    0.1557    0.0000 C   0  0  0  0  0  0  0  0  0  0  0  0
    2.1435   -0.2568    0.0000 C   0  0  0  0  0  0  0  0  0  0  0  0
    2.8579    0.1557    0.0000 C   0  0  0  0  0  0  0  0  0  0  0  0
    3.5724   -0.2568    0.0000 C   0  0  0  0  0  0  0  0  0  0  0  0
    4.2869    0.1557    0.0000 C   0  0  0  0  0  0  0  0  0  0  0  0
    5.0014   -0.2568    0.0000 C   0  0  0  0  0  0  0  0  0  0  0  0
    5.7158    0.1557    0.0000 C   0  0  0  0  0  0  0  0  0  0  0  0
    6.4303   -0.2568    0.0000 C   0  0  0  0  0  0  0  0  0  0  0  0
    7.1448    0.1557    0.0000 C   0  0  0  0  0  0  0  0  0  0  0  0
    7.8592   -0.2568    0.0000 C   0  0  0  0  0  0  0  0  0  0  0  0
    8.5737    0.1557    0.0000 C   0  0  0  0  0  0  0  0  0  0  0  0
    0.4126    0.8702    0.0000 C   0  0  0  0  0  0  0  0  0  0  0  0
   -0.4124   -0.5588    0.0000 C   0  0  0  0  0  0  0  0  0  0  0  0
   -0.7144    0.5682    0.0000 C   0  0  0  0  0  0  0  0  0  0  0  0
   -1.4289    0.1557    0.0000 C   0  0  0  0  0  0  0  0  0  0  0  0
   -2.1434    0.5682    0.0000 C   0  0  0  0  0  0  0  0  0  0  0  0
   -2.8578    0.1557    0.0000 C   0  0  0  0  0  0  0  0  0  0  0  0
   -2.8578   -0.6693    0.0000 C   0  0  0  0  0  0  0  0  0  0  0  0
   -2.1434   -1.0818    0.0000 C   0  0  0  0  0  0  0  0  0  0  0  0
   -1.4289   -0.6693    0.0000 C   0  0  0  0  0  0  0  0  0  0  0  0
  1  2  1  0  0  0  0
  2  3  1  0  0  0  0
  3  4  1  0  0  0  0
  4  5  1  0  0  0  0
  5  6  1  0  0  0  0
  6  7  1  0  0  0  0
  7  8  1  0  0  0  0
  8  9  1  0  0  0  0
  9 10  1  0  0  0  0
 10 11  1  0  0  0  0
 11 12  1  0  0  0  0
 12 13  1  0  0  0  0
  1 14  1  0  0  0  0
  1 15  1  0  0  0  0
  1 16  1  0  0  0  0
 16 17  1  0  0  0  0
 18 17  1  0  0  0  0
 19 18  2  0  0  0  0
 20 19  1  0  0  0  0
 21 20  2  0  0  0  0
 22 21  1  0  0  0  0
 17 22  2  0  0  0  0
M  CHG  1   1   1
M  END
> <ChemID>
100689

> <CAS>
139-07-1

> <Original_SMILES>
[Cl-].CCCCCCCCCCCC[N+](C)(C)Cc1ccccc1

> <preferred_name>
Benzyldimethyldodecylammonium chloride

> <dsstox_substance_id>
DTXSID2040787

> <dsstox_compound_id>
DTXCID7014317

> <qc_level>
DSSTox_High

> <Canonical_QSARr>
CCCCCCCCCCCC[N+](C)(C)CC1C=CC=CC=1

> <InChI_Code_QSARr>
InChI=1S/C21H38N/c1-4-5-6-7-8-9-10-11-12-16-19-22(2,3)20-21-17-14-13-15-18-21/h13-15,17-18H,4-12,16,19-20H2,1-3H3/q+1

> <InChI Key_QSARr>
CYDRXTMLKJDRQH-UHFFFAOYSA-N

> <Salt_Solvent>
[Cl-]

> <Salt_Solvent_ID>
170

> <MPID>
100698

> <Tr_1_Tst_0>
1

> <Ready_Biodeg>
0.0

$$$$
Row679
  Mrv171c001112021182D          

 24 24  0  0  0  0            999 V2000
   -5.1203    0.1771    0.0000 N   0  3  0  0  0  0  0  0  0  0  0  0
   -5.5328   -0.5374    0.0000 C   0  0  0  0  0  0  0  0  0  0  0  0
   -4.7078    0.8916    0.0000 C   0  0  0  0  0  0  0  0  0  0  0  0
   -5.8347    0.5896    0.0000 C   0  0  0  0  0  0  0  0  0  0  0  0
   -6.5492    0.1771    0.0000 C   0  0  0  0  0  0  0  0  0  0  0  0
   -7.2637    0.5896    0.0000 C   0  0  0  0  0  0  0  0  0  0  0  0
   -7.9781    0.1771    0.0000 C   0  0  0  0  0  0  0  0  0  0  0  0
   -7.9781   -0.6479    0.0000 C   0  0  0  0  0  0  0  0  0  0  0  0
   -7.2637   -1.0604    0.0000 C   0  0  0  0  0  0  0  0  0  0  0  0
   -6.5492   -0.6479    0.0000 C   0  0  0  0  0  0  0  0  0  0  0  0
   -4.4058   -0.2354    0.0000 C   0  0  0  0  0  0  0  0  0  0  0  0
   -3.6913    0.1771    0.0000 C   0  0  0  0  0  0  0  0  0  0  0  0
   -2.9769   -0.2354    0.0000 C   0  0  0  0  0  0  0  0  0  0  0  0
   -2.2624    0.1771    0.0000 C   0  0  0  0  0  0  0  0  0  0  0  0
   -1.5479   -0.2354    0.0000 C   0  0  0  0  0  0  0  0  0  0  0  0
   -0.8334    0.1771    0.0000 C   0  0  0  0  0  0  0  0  0  0  0  0
   -0.1190   -0.2354    0.0000 C   0  0  0  0  0  0  0  0  0  0  0  0
    0.5955    0.1771    0.0000 C   0  0  0  0  0  0  0  0  0  0  0  0
    1.3100   -0.2354    0.0000 C   0  0  0  0  0  0  0  0  0  0  0  0
    2.0244    0.1771    0.0000 C   0  0  0  0  0  0  0  0  0  0  0  0
    2.7389   -0.2354    0.0000 C   0  0  0  0  0  0  0  0  0  0  0  0
    3.4534    0.1771    0.0000 C   0  0  0  0  0  0  0  0  0  0  0  0
    4.1679   -0.2354    0.0000 C   0  0  0  0  0  0  0  0  0  0  0  0
    4.8823    0.1771    0.0000 C   0  0  0  0  0  0  0  0  0  0  0  0
  1  2  1  0  0  0  0
  1  3  1  0  0  0  0
  1  4  1  0  0  0  0
  4  5  1  0  0  0  0
  6  5  1  0  0  0  0
  7  6  2  0  0  0  0
  8  7  1  0  0  0  0
  9  8  2  0  0  0  0
 10  9  1  0  0  0  0
  5 10  2  0  0  0  0
  1 11  1  0  0  0  0
 11 12  1  0  0  0  0
 12 13  1  0  0  0  0
 13 14  1  0  0  0  0
 14 15  1  0  0  0  0
 15 16  1  0  0  0  0
 16 17  1  0  0  0  0
 17 18  1  0  0  0  0
 18 19  1  0  0  0  0
 19 20  1  0  0  0  0
 20 21  1  0  0  0  0
 21 22  1  0  0  0  0
 22 23  1  0  0  0  0
 23 24  1  0  0  0  0
M  CHG  1   1   1
M  END
> <ChemID>
100690

> <CAS>
139-08-2

> <Original_SMILES>
[Cl-].CCCCCCCCCCCCCC[N+](C)(C)Cc1ccccc1

> <preferred_name>
Tetradecyldimethylbenzylammonium chloride

> <dsstox_substance_id>
DTXSID6036384

> <dsstox_compound_id>
DTXCID408460

> <qc_level>
DSSTox_High

> <Canonical_QSARr>
CCCCCCCCCCCCCC[N+](C)(C)CC1C=CC=CC=1

> <InChI_Code_QSARr>
InChI=1S/C23H42N/c1-4-5-6-7-8-9-10-11-12-13-14-18-21-24(2,3)22-23-19-16-15-17-20-23/h15-17,19-20H,4-14,18,21-22H2,1-3H3/q+1

> <InChI Key_QSARr>
WNBGYVXHFTYOBY-UHFFFAOYSA-N

> <Salt_Solvent>
[Cl-]

> <Salt_Solvent_ID>
170

> <MPID>
100699

> <Tr_1_Tst_0>
1

> <Ready_Biodeg>
0.0

$$$$
Row680
  Mrv171c012251911052D          

 13 12  0  0  0  0            999 V2000
    0.4085   -3.3711    0.0000 O   0  0  0  0  0  0  0  0  0  0  0  0
    1.1230   -3.7836    0.0000 C   0  0  0  0  0  0  0  0  0  0  0  0
    1.8375   -3.3711    0.0000 C   0  0  0  0  0  0  0  0  0  0  0  0
    1.8375   -2.5461    0.0000 N   0  0  0  0  0  0  0  0  0  0  0  0
    1.1230   -2.1336    0.0000 C   0  0  0  0  0  0  0  0  0  0  0  0
    1.1230   -1.3086    0.0000 C   0  0  0  0  0  0  0  0  0  0  0  0
    1.8375   -0.8961    0.0000 O   0  0  0  0  0  0  0  0  0  0  0  0
    0.4085   -0.8961    0.0000 O   0  0  0  0  0  0  0  0  0  0  0  0
    2.5519   -2.1336    0.0000 C   0  0  0  0  0  0  0  0  0  0  0  0
    2.5519   -1.3086    0.0000 C   0  0  0  0  0  0  0  0  0  0  0  0
    3.2664   -0.8961    0.0000 O   0  0  0  0  0  0  0  0  0  0  0  0
    2.2164   -0.5549    0.0000 O   0  0  0  0  0  0  0  0  0  0  0  0
    1.1230   -4.6086    0.0000 O   0  0  0  0  0  0  0  0  0  0  0  0
  1  2  1  0  0  0  0
  2  3  1  0  0  0  0
  3  4  1  0  0  0  0
  4  5  1  0  0  0  0
  5  6  1  0  0  0  0
  6  7  1  0  0  0  0
  6  8  2  0  0  0  0
  4  9  1  0  0  0  0
  9 10  1  0  0  0  0
 10 11  1  0  0  0  0
 10 12  2  0  0  0  0
  2 13  2  0  0  0  0
M  END
> <ChemID>
100691

> <CAS>
139-13-9

> <Original_SMILES>
OC(=O)CN(CC(O)=O)CC(O)=O

> <preferred_name>
Nitrilotriacetic acid

> <dsstox_substance_id>
DTXSID6020939

> <dsstox_compound_id>
DTXCID20939

> <qc_level>
DSSTox_Low

> <Canonical_QSARr>
OC(=O)CN(CC(O)=O)CC(O)=O

> <InChI_Code_QSARr>
InChI=1S/C6H9NO6/c8-4(9)1-7(2-5(10)11)3-6(12)13/h1-3H2,(H,8,9)(H,10,11)(H,12,13)

> <InChI Key_QSARr>
MGFYIUFZLHCRTH-UHFFFAOYSA-N

> <Salt_Solvent>


> <Salt_Solvent_ID>
0

> <MPID>
100700

> <Tr_1_Tst_0>
1

> <Ready_Biodeg>
0.0

$$$$
Row681
  Mrv171c012251911052D          

 15 15  0  0  0  0            999 V2000
    3.8273   -3.1128    0.0000 Cl  0  0  0  0  0  0  0  0  0  0  0  0
    3.1128   -2.7003    0.0000 C   0  0  0  0  0  0  0  0  0  0  0  0
    3.1128   -1.8753    0.0000 N   0  0  0  0  0  0  0  0  0  0  0  0
    2.3983   -1.4628    0.0000 C   0  0  0  0  0  0  0  0  0  0  0  0
    2.3983   -0.6378    0.0000 N   0  0  0  0  0  0  0  0  0  0  0  0
    3.1128   -0.2253    0.0000 C   0  0  0  0  0  0  0  0  0  0  0  0
    3.1128    0.5997    0.0000 C   0  0  0  0  0  0  0  0  0  0  0  0
    3.8273   -0.6378    0.0000 C   0  0  0  0  0  0  0  0  0  0  0  0
    1.6839   -1.8753    0.0000 N   0  0  0  0  0  0  0  0  0  0  0  0
    1.6839   -2.7003    0.0000 C   0  0  0  0  0  0  0  0  0  0  0  0
    0.9694   -3.1128    0.0000 N   0  0  0  0  0  0  0  0  0  0  0  0
    0.2549   -2.7003    0.0000 C   0  0  0  0  0  0  0  0  0  0  0  0
   -0.4596   -3.1128    0.0000 C   0  0  0  0  0  0  0  0  0  0  0  0
    0.2549   -1.8753    0.0000 C   0  0  0  0  0  0  0  0  0  0  0  0
    2.3983   -3.1128    0.0000 N   0  0  0  0  0  0  0  0  0  0  0  0
  1  2  1  0  0  0  0
  3  2  1  0  0  0  0
  4  3  2  0  0  0  0
  4  5  1  0  0  0  0
  5  6  1  0  0  0  0
  6  7  1  0  0  0  0
  6  8  1  0  0  0  0
  9  4  1  0  0  0  0
 10  9  2  0  0  0  0
 10 11  1  0  0  0  0
 11 12  1  0  0  0  0
 12 13  1  0  0  0  0
 12 14  1  0  0  0  0
 15 10  1  0  0  0  0
  2 15  2  0  0  0  0
M  END
> <ChemID>
100692

> <CAS>
139-40-2

> <Original_SMILES>
CC(C)Nc1[n]c(Cl)[n]c(NC(C)C)[n]1

> <preferred_name>
Propazine

> <dsstox_substance_id>
DTXSID3021196

> <dsstox_compound_id>
DTXCID401196

> <qc_level>
DSSTox_High

> <Canonical_QSARr>
CC(C)NC1=NC(Cl)=NC(NC(C)C)=N1

> <InChI_Code_QSARr>
InChI=1S/C9H16ClN5/c1-5(2)11-8-13-7(10)14-9(15-8)12-6(3)4/h5-6H,1-4H3,(H2,11,12,13,14,15)

> <InChI Key_QSARr>
WJNRPILHGGKWCK-UHFFFAOYSA-N

> <Salt_Solvent>


> <Salt_Solvent_ID>
0

> <MPID>
100701

> <Tr_1_Tst_0>
1

> <Ready_Biodeg>
0.0

$$$$
Row682
  Mrv171c012251911052D          

 11 11  0  0  0  0            999 V2000
    3.2709    0.9275    0.0000 C   0  0  0  0  0  0  0  0  0  0  0  0
    2.5564    0.5150    0.0000 C   0  0  0  0  0  0  0  0  0  0  0  0
    2.5564   -0.3100    0.0000 O   0  0  0  0  0  0  0  0  0  0  0  0
    1.8420   -0.7225    0.0000 C   0  0  0  0  0  0  0  0  0  0  0  0
    1.8420   -1.5475    0.0000 C   0  0  0  0  0  0  0  0  0  0  0  0
    1.1275   -1.9600    0.0000 C   0  0  0  0  0  0  0  0  0  0  0  0
    1.1275   -2.7850    0.0000 C   0  0  0  0  0  0  0  0  0  0  0  0
    1.8420   -3.1975    0.0000 C   0  0  0  0  0  0  0  0  0  0  0  0
    2.5564   -2.7850    0.0000 C   0  0  0  0  0  0  0  0  0  0  0  0
    2.5564   -1.9600    0.0000 C   0  0  0  0  0  0  0  0  0  0  0  0
    1.8420    0.9275    0.0000 O   0  0  0  0  0  0  0  0  0  0  0  0
  1  2  1  0  0  0  0
  2  3  1  0  0  0  0
  3  4  1  0  0  0  0
  4  5  1  0  0  0  0
  6  5  1  0  0  0  0
  7  6  2  0  0  0  0
  8  7  1  0  0  0  0
  9  8  2  0  0  0  0
 10  9  1  0  0  0  0
  5 10  2  0  0  0  0
  2 11  2  0  0  0  0
M  END
> <ChemID>
100693

> <CAS>
140-11-4

> <Original_SMILES>
CC(=O)OCc1ccccc1

> <preferred_name>
Benzyl acetate

> <dsstox_substance_id>
DTXSID0020151

> <dsstox_compound_id>
DTXCID40151

> <qc_level>
DSSTox_Low

> <Canonical_QSARr>
CC(=O)OCC1C=CC=CC=1

> <InChI_Code_QSARr>
InChI=1S/C9H10O2/c1-8(10)11-7-9-5-3-2-4-6-9/h2-6H,7H2,1H3

> <InChI Key_QSARr>
QUKGYYKBILRGFE-UHFFFAOYSA-N

> <Salt_Solvent>


> <Salt_Solvent_ID>
0

> <MPID>
100702

> <Tr_1_Tst_0>
0

> <Ready_Biodeg>
1.0

$$$$
Row683
  Mrv171c012251911052D          

  9  9  0  0  0  0            999 V2000
    3.3337    0.8240    0.0000 N   0  0  0  0  0  0  0  0  0  0  0  0
    2.6193    0.4115    0.0000 C   0  0  0  0  0  0  0  0  0  0  0  0
    1.9048   -0.0010    0.0000 C   0  0  0  0  0  0  0  0  0  0  0  0
    1.9048   -0.8260    0.0000 C   0  0  0  0  0  0  0  0  0  0  0  0
    1.1903   -1.2385    0.0000 C   0  0  0  0  0  0  0  0  0  0  0  0
    1.1903   -2.0635    0.0000 C   0  0  0  0  0  0  0  0  0  0  0  0
    1.9048   -2.4760    0.0000 C   0  0  0  0  0  0  0  0  0  0  0  0
    2.6193   -2.0635    0.0000 C   0  0  0  0  0  0  0  0  0  0  0  0
    2.6193   -1.2385    0.0000 C   0  0  0  0  0  0  0  0  0  0  0  0
  1  2  3  0  0  0  0
  2  3  1  0  0  0  0
  3  4  1  0  0  0  0
  5  4  1  0  0  0  0
  6  5  2  0  0  0  0
  7  6  1  0  0  0  0
  8  7  2  0  0  0  0
  9  8  1  0  0  0  0
  4  9  2  0  0  0  0
M  END
> <ChemID>
100694

> <CAS>
140-29-4

> <Original_SMILES>
N#CCc1ccccc1

> <preferred_name>
Benzyl cyanide

> <dsstox_substance_id>
DTXSID2021492

> <dsstox_compound_id>
DTXCID401492

> <qc_level>
DSSTox_Low

> <Canonical_QSARr>
N#CCC1C=CC=CC=1

> <InChI_Code_QSARr>
InChI=1S/C8H7N/c9-7-6-8-4-2-1-3-5-8/h1-5H,6H2

> <InChI Key_QSARr>
SUSQOBVLVYHIEX-UHFFFAOYSA-N

> <Salt_Solvent>


> <Salt_Solvent_ID>
0

> <MPID>
100703

> <Tr_1_Tst_0>
1

> <Ready_Biodeg>
1.0

$$$$
Row684
  Mrv171c012251911052D          

  7  6  0  0  0  0            999 V2000
    1.1685   -1.8044    0.0000 O   0  0  0  0  0  0  0  0  0  0  0  0
    1.1685   -0.9794    0.0000 C   0  0  0  0  0  0  0  0  0  0  0  0
    0.4540   -0.5669    0.0000 C   0  0  0  0  0  0  0  0  0  0  0  0
   -0.2605   -0.9794    0.0000 C   0  0  0  0  0  0  0  0  0  0  0  0
    1.8829   -0.5669    0.0000 O   0  0  0  0  0  0  0  0  0  0  0  0
    2.5974   -0.9794    0.0000 C   0  0  0  0  0  0  0  0  0  0  0  0
    3.3119   -0.5669    0.0000 C   0  0  0  0  0  0  0  0  0  0  0  0
  1  2  2  0  0  0  0
  2  3  1  0  0  0  0
  3  4  2  0  0  0  0
  2  5  1  0  0  0  0
  5  6  1  0  0  0  0
  6  7  1  0  0  0  0
M  END
> <ChemID>
100695

> <CAS>
140-88-5

> <Original_SMILES>
CCOC(=O)C=C

> <preferred_name>
Ethyl acrylate

> <dsstox_substance_id>
DTXSID4020583

> <dsstox_compound_id>
DTXCID00583

> <qc_level>
DSSTox_Low

> <Canonical_QSARr>
CCOC(=O)C=C

> <InChI_Code_QSARr>
InChI=1S/C5H8O2/c1-3-5(6)7-4-2/h3H,1,4H2,2H3

> <InChI Key_QSARr>
JIGUQPWFLRLWPJ-UHFFFAOYSA-N

> <Salt_Solvent>


> <Salt_Solvent_ID>
0

> <MPID>
100704

> <Tr_1_Tst_0>
1

> <Ready_Biodeg>
1.0

$$$$
Row685
  Mrv171c012251911052D          

 24 23  0  0  0  0            999 V2000
    0.1401    8.3309    0.0000 C   0  0  0  0  0  0  0  0  0  0  0  0
    0.1401    7.5059    0.0000 C   0  0  0  0  0  0  0  0  0  0  0  0
    0.8546    7.0934    0.0000 C   0  0  0  0  0  0  0  0  0  0  0  0
    0.8546    6.2684    0.0000 C   0  0  0  0  0  0  0  0  0  0  0  0
    1.5691    5.8559    0.0000 C   0  0  0  0  0  0  0  0  0  0  0  0
    1.5691    5.0309    0.0000 C   0  0  0  0  0  0  0  0  0  0  0  0
    2.2836    4.6184    0.0000 O   0  0  0  0  0  0  0  0  0  0  0  0
    2.2836    3.7934    0.0000 C   0  0  0  0  0  0  0  0  0  0  0  0
    1.5691    3.3809    0.0000 O   0  0  0  0  0  0  0  0  0  0  0  0
    2.9980    3.3809    0.0000 C   0  0  0  0  0  0  0  0  0  0  0  0
    2.9980    2.5559    0.0000 C   0  0  0  0  0  0  0  0  0  0  0  0
    3.7125    2.1434    0.0000 C   0  0  0  0  0  0  0  0  0  0  0  0
    3.7125    1.3184    0.0000 O   0  0  0  0  0  0  0  0  0  0  0  0
    4.4270    2.5559    0.0000 O   0  0  0  0  0  0  0  0  0  0  0  0
    5.1414    2.1434    0.0000 C   0  0  0  0  0  0  0  0  0  0  0  0
    5.8559    2.5559    0.0000 C   0  0  0  0  0  0  0  0  0  0  0  0
    6.5704    2.1434    0.0000 C   0  0  0  0  0  0  0  0  0  0  0  0
    7.2849    2.5559    0.0000 C   0  0  0  0  0  0  0  0  0  0  0  0
    7.9993    2.1434    0.0000 C   0  0  0  0  0  0  0  0  0  0  0  0
    8.7138    2.5559    0.0000 C   0  0  0  0  0  0  0  0  0  0  0  0
    5.8559    3.3809    0.0000 C   0  0  0  0  0  0  0  0  0  0  0  0
    6.5704    3.7934    0.0000 C   0  0  0  0  0  0  0  0  0  0  0  0
    2.2836    6.2684    0.0000 C   0  0  0  0  0  0  0  0  0  0  0  0
    2.9980    5.8559    0.0000 C   0  0  0  0  0  0  0  0  0  0  0  0
  1  2  1  0  0  0  0
  2  3  1  0  0  0  0
  3  4  1  0  0  0  0
  4  5  1  0  0  0  0
  5  6  1  0  0  0  0
  6  7  1  0  0  0  0
  7  8  1  0  0  0  0
  8  9  2  0  0  0  0
 10  8  1  4  0  0  0
 10 11  2  0  0  0  0
 11 12  1  0  0  0  0
 12 13  2  0  0  0  0
 12 14  1  0  0  0  0
 14 15  1  0  0  0  0
 15 16  1  0  0  0  0
 16 17  1  0  0  0  0
 17 18  1  0  0  0  0
 18 19  1  0  0  0  0
 19 20  1  0  0  0  0
 16 21  1  0  0  0  0
 21 22  1  0  0  0  0
  5 23  1  0  0  0  0
 23 24  1  0  0  0  0
M  END
> <ChemID>
100696

> <CAS>
141-02-6|142-16-5

> <Original_SMILES>
CCCCC(COC(=O)/C=C/C(=O)OCC(CCCC)CC)CC

> <preferred_name>
Di(2-ethylhexyl) fumarate|Bis(2-ethylhexyl) maleate

> <dsstox_substance_id>
DTXSID2051710|DTXSID2027094

> <dsstox_compound_id>
DTXCID8030265|DTXCID007094

> <qc_level>
DSSTox_Low

> <Canonical_QSARr>
CCCCC(COC(=O)C=CC(=O)OCC(CCCC)CC)CC

> <InChI_Code_QSARr>
InChI=1S/C20H36O4/c1-5-9-11-17(7-3)15-23-19(21)13-14-20(22)24-16-18(8-4)12-10-6-2/h13-14,17-18H,5-12,15-16H2,1-4H3

> <InChI Key_QSARr>
ROPXFXOUUANXRR-UHFFFAOYSA-N

> <Salt_Solvent>


> <Salt_Solvent_ID>
0

> <MPID>
100705|100715

> <Tr_1_Tst_0>
1

> <Ready_Biodeg>
1.0

$$$$
Row686
  Mrv171c012251911052D          

 30 29  0  0  0  0            999 V2000
    7.9095   -0.8312    0.0000 C   0  0  0  0  0  0  0  0  0  0  0  0
    7.9095   -0.0062    0.0000 O   0  0  0  0  0  0  0  0  0  0  0  0
    7.1950   -1.2437    0.0000 O   0  0  0  0  0  0  0  0  0  0  0  0
    6.4806   -0.8312    0.0000 C   0  0  0  0  0  0  0  0  0  0  0  0
    5.7661   -1.2437    0.0000 C   0  0  0  0  0  0  0  0  0  0  0  0
    5.0516   -0.8312    0.0000 O   0  0  0  0  0  0  0  0  0  0  0  0
    4.3372   -1.2437    0.0000 C   0  0  0  0  0  0  0  0  0  0  0  0
    3.6227   -0.8312    0.0000 C   0  0  0  0  0  0  0  0  0  0  0  0
    2.9082   -1.2437    0.0000 O   0  0  0  0  0  0  0  0  0  0  0  0
    2.1938   -0.8312    0.0000 C   0  0  0  0  0  0  0  0  0  0  0  0
    1.4793   -1.2437    0.0000 C   0  0  0  0  0  0  0  0  0  0  0  0
    0.7648   -0.8312    0.0000 C   0  0  0  0  0  0  0  0  0  0  0  0
    0.0503   -1.2437    0.0000 C   0  0  0  0  0  0  0  0  0  0  0  0
    8.6240   -1.2437    0.0000 C   0  0  0  0  0  0  0  0  0  0  0  0
    9.3385   -0.8312    0.0000 C   0  0  0  0  0  0  0  0  0  0  0  0
   10.0529   -1.2437    0.0000 C   0  0  0  0  0  0  0  0  0  0  0  0
   10.7674   -0.8312    0.0000 C   0  0  0  0  0  0  0  0  0  0  0  0
   11.4819   -1.2437    0.0000 C   0  0  0  0  0  0  0  0  0  0  0  0
   11.4819   -2.0687    0.0000 O   0  0  0  0  0  0  0  0  0  0  0  0
   12.1963   -0.8312    0.0000 O   0  0  0  0  0  0  0  0  0  0  0  0
   12.9108   -1.2437    0.0000 C   0  0  0  0  0  0  0  0  0  0  0  0
   13.6253   -0.8312    0.0000 C   0  0  0  0  0  0  0  0  0  0  0  0
   14.3398   -1.2437    0.0000 O   0  0  0  0  0  0  0  0  0  0  0  0
   15.0542   -0.8312    0.0000 C   0  0  0  0  0  0  0  0  0  0  0  0
   15.7687   -1.2437    0.0000 C   0  0  0  0  0  0  0  0  0  0  0  0
   16.4832   -0.8312    0.0000 O   0  0  0  0  0  0  0  0  0  0  0  0
   17.1976   -1.2437    0.0000 C   0  0  0  0  0  0  0  0  0  0  0  0
   17.9121   -0.8312    0.0000 C   0  0  0  0  0  0  0  0  0  0  0  0
   18.6266   -1.2437    0.0000 C   0  0  0  0  0  0  0  0  0  0  0  0
   19.3411   -0.8312    0.0000 C   0  0  0  0  0  0  0  0  0  0  0  0
  1  2  2  0  0  0  0
  1  3  1  0  0  0  0
  3  4  1  0  0  0  0
  4  5  1  0  0  0  0
  5  6  1  0  0  0  0
  6  7  1  0  0  0  0
  7  8  1  0  0  0  0
  8  9  1  0  0  0  0
  9 10  1  0  0  0  0
 10 11  1  0  0  0  0
 11 12  1  0  0  0  0
 12 13  1  0  0  0  0
  1 14  1  0  0  0  0
 14 15  1  0  0  0  0
 15 16  1  0  0  0  0
 16 17  1  0  0  0  0
 17 18  1  0  0  0  0
 18 19  2  0  0  0  0
 18 20  1  0  0  0  0
 20 21  1  0  0  0  0
 21 22  1  0  0  0  0
 22 23  1  0  0  0  0
 23 24  1  0  0  0  0
 24 25  1  0  0  0  0
 25 26  1  0  0  0  0
 26 27  1  0  0  0  0
 27 28  1  0  0  0  0
 28 29  1  0  0  0  0
 29 30  1  0  0  0  0
M  END
> <ChemID>
100697

> <CAS>
141-17-3

> <Original_SMILES>
CCCCOCCOCCOC(=O)CCCCC(=O)OCCOCCOCCCC

> <preferred_name>
Bis[2-(2-butoxyethoxy)ethyl] hexandioate

> <dsstox_substance_id>
DTXSID3027085

> <dsstox_compound_id>
DTXCID107085

> <qc_level>
DSSTox_Low

> <Canonical_QSARr>
CCCCOCCOCCOC(=O)CCCCC(=O)OCCOCCOCCCC

> <InChI_Code_QSARr>
InChI=1S/C22H42O8/c1-3-5-11-25-13-15-27-17-19-29-21(23)9-7-8-10-22(24)30-20-18-28-16-14-26-12-6-4-2/h3-20H2,1-2H3

> <InChI Key_QSARr>
SCABKEBYDRTODC-UHFFFAOYSA-N

> <Salt_Solvent>


> <Salt_Solvent_ID>
0

> <MPID>
100706

> <Tr_1_Tst_0>
0

> <Ready_Biodeg>
1.0

$$$$
Row687
  Mrv171c012251911052D          

  9  8  0  0  0  0            999 V2000
    0.7879   -1.9671    0.0000 O   0  0  0  0  0  0  0  0  0  0  0  0
    0.7879   -1.1421    0.0000 C   0  0  0  0  0  0  0  0  0  0  0  0
    0.0734   -0.7296    0.0000 C   0  0  0  0  0  0  0  0  0  0  0  0
   -0.6410   -1.1421    0.0000 C   0  0  0  0  0  0  0  0  0  0  0  0
    1.5024   -0.7296    0.0000 O   0  0  0  0  0  0  0  0  0  0  0  0
    2.2169   -1.1421    0.0000 C   0  0  0  0  0  0  0  0  0  0  0  0
    2.9313   -0.7296    0.0000 C   0  0  0  0  0  0  0  0  0  0  0  0
    3.6458   -1.1421    0.0000 C   0  0  0  0  0  0  0  0  0  0  0  0
    4.3603   -0.7296    0.0000 C   0  0  0  0  0  0  0  0  0  0  0  0
  1  2  2  0  0  0  0
  2  3  1  0  0  0  0
  3  4  2  0  0  0  0
  2  5  1  0  0  0  0
  5  6  1  0  0  0  0
  6  7  1  0  0  0  0
  7  8  1  0  0  0  0
  8  9  1  0  0  0  0
M  END
> <ChemID>
100698

> <CAS>
141-32-2

> <Original_SMILES>
CCCCOC(=O)C=C

> <preferred_name>
Butyl acrylate

> <dsstox_substance_id>
DTXSID6024676

> <dsstox_compound_id>
DTXCID104676

> <qc_level>
DSSTox_Low

> <Canonical_QSARr>
CCCCOC(=O)C=C

> <InChI_Code_QSARr>
InChI=1S/C7H12O2/c1-3-5-6-9-7(8)4-2/h4H,2-3,5-6H2,1H3

> <InChI Key_QSARr>
CQEYYJKEWSMYFG-UHFFFAOYSA-N

> <Salt_Solvent>


> <Salt_Solvent_ID>
0

> <MPID>
100707

> <Tr_1_Tst_0>
1

> <Ready_Biodeg>
1.0

$$$$
Row688
  Mrv171c012251911052D          

  4  3  0  0  0  0            999 V2000
    2.1020   -0.5628    0.0000 O   0  0  0  0  0  0  0  0  0  0  0  0
    1.2770   -0.5628    0.0000 C   0  0  0  0  0  0  0  0  0  0  0  0
    0.8645    0.1517    0.0000 C   0  0  0  0  0  0  0  0  0  0  0  0
    0.0395    0.1517    0.0000 N   0  0  0  0  0  0  0  0  0  0  0  0
  1  2  1  0  0  0  0
  2  3  1  0  0  0  0
  3  4  1  0  0  0  0
M  END
> <ChemID>
100699

> <CAS>
141-43-5

> <Original_SMILES>
NCCO

> <preferred_name>
Ethanolamine

> <dsstox_substance_id>
DTXSID6022000

> <dsstox_compound_id>
DTXCID202000

> <qc_level>
DSSTox_High

> <Canonical_QSARr>
NCCO

> <InChI_Code_QSARr>
InChI=1S/C2H7NO/c3-1-2-4/h4H,1-3H2

> <InChI Key_QSARr>
HZAXFHJVJLSVMW-UHFFFAOYSA-N

> <Salt_Solvent>


> <Salt_Solvent_ID>
0

> <MPID>
100708

> <Tr_1_Tst_0>
1

> <Ready_Biodeg>
1.0

$$$$
Row689
  Mrv171c012251911052D          

  6  5  0  0  0  0            999 V2000
    1.8927    0.4153    0.0000 C   0  0  0  0  0  0  0  0  0  0  0  0
    1.4802   -0.2991    0.0000 C   0  0  0  0  0  0  0  0  0  0  0  0
    1.8927   -1.0136    0.0000 O   0  0  0  0  0  0  0  0  0  0  0  0
    1.4802   -1.7281    0.0000 C   0  0  0  0  0  0  0  0  0  0  0  0
    1.8927   -2.4425    0.0000 C   0  0  0  0  0  0  0  0  0  0  0  0
    0.6552   -0.2991    0.0000 O   0  0  0  0  0  0  0  0  0  0  0  0
  1  2  1  0  0  0  0
  2  3  1  0  0  0  0
  3  4  1  0  0  0  0
  4  5  1  0  0  0  0
  2  6  2  0  0  0  0
M  END
> <ChemID>
100700

> <CAS>
141-78-6

> <Original_SMILES>
CCOC(C)=O

> <preferred_name>
Ethyl acetate

> <dsstox_substance_id>
DTXSID1022001

> <dsstox_compound_id>
DTXCID602001

> <qc_level>
DSSTox_Low

> <Canonical_QSARr>
CCOC(C)=O

> <InChI_Code_QSARr>
InChI=1S/C4H8O2/c1-3-6-4(2)5/h3H2,1-2H3

> <InChI Key_QSARr>
XEKOWRVHYACXOJ-UHFFFAOYSA-N

> <Salt_Solvent>


> <Salt_Solvent_ID>
0

> <MPID>
100709

> <Tr_1_Tst_0>
1

> <Ready_Biodeg>
1.0

$$$$
Row690
  Mrv171c012251911052D          

  7  6  0  0  0  0            999 V2000
    1.9012    0.6622    0.0000 O   0  0  0  0  0  0  0  0  0  0  0  0
    1.4887   -0.0523    0.0000 C   0  0  0  0  0  0  0  0  0  0  0  0
    1.9012   -0.7668    0.0000 C   0  0  0  0  0  0  0  0  0  0  0  0
    1.4887   -1.4812    0.0000 C   0  0  0  0  0  0  0  0  0  0  0  0
    1.9012   -2.1957    0.0000 O   0  0  0  0  0  0  0  0  0  0  0  0
    0.6637   -1.4812    0.0000 O   0  0  0  0  0  0  0  0  0  0  0  0
    0.6637   -0.0523    0.0000 O   0  0  0  0  0  0  0  0  0  0  0  0
  1  2  2  0  0  0  0
  2  3  1  0  0  0  0
  3  4  1  0  0  0  0
  4  5  2  0  0  0  0
  4  6  1  0  0  0  0
  2  7  1  0  0  0  0
M  END
> <ChemID>
100701

> <CAS>
141-82-2

> <Original_SMILES>
OC(=O)CC(O)=O

> <preferred_name>
Propanedioic acid

> <dsstox_substance_id>
DTXSID7021659

> <dsstox_compound_id>
DTXCID401659

> <qc_level>
DSSTox_Low

> <Canonical_QSARr>
OC(=O)CC(O)=O

> <InChI_Code_QSARr>
InChI=1S/C3H4O4/c4-2(5)1-3(6)7/h1H2,(H,4,5)(H,6,7)

> <InChI Key_QSARr>
OFOBLEOULBTSOW-UHFFFAOYSA-N

> <Salt_Solvent>


> <Salt_Solvent_ID>
0

> <MPID>
100710

> <Tr_1_Tst_0>
0

> <Ready_Biodeg>
1.0

$$$$
Row691
  Mrv171c012251911052D          

  8  8  0  0  0  0            999 V2000
    1.9657   -0.7219    0.0000 N   0  0  0  0  0  0  0  0  0  0  0  0
    1.2512   -0.3094    0.0000 C   0  0  0  0  0  0  0  0  0  0  0  0
    1.2512    0.5156    0.0000 N   0  0  0  0  0  0  0  0  0  0  0  0
    0.5367   -0.7219    0.0000 C   0  0  0  0  0  0  0  0  0  0  0  0
    0.5367   -1.5469    0.0000 C   0  0  0  0  0  0  0  0  0  0  0  0
    1.2512   -1.9594    0.0000 C   0  0  0  0  0  0  0  0  0  0  0  0
    1.9657   -1.5469    0.0000 C   0  0  0  0  0  0  0  0  0  0  0  0
    2.6801   -1.9594    0.0000 N   0  0  0  0  0  0  0  0  0  0  0  0
  2  1  1  0  0  0  0
  2  3  1  0  0  0  0
  4  2  2  0  0  0  0
  5  4  1  0  0  0  0
  6  5  2  0  0  0  0
  7  6  1  0  0  0  0
  1  7  2  0  0  0  0
  7  8  1  0  0  0  0
M  END
> <ChemID>
100702

> <CAS>
141-86-6

> <Original_SMILES>
Nc1cccc(N)[n]1

> <preferred_name>
2,6-Diaminopyridine

> <dsstox_substance_id>
DTXSID0040127

> <dsstox_compound_id>
DTXCID8020127

> <qc_level>
DSSTox_Low

> <Canonical_QSARr>
NC1C=CC=C(N)N=1

> <InChI_Code_QSARr>
InChI=1S/C5H7N3/c6-4-2-1-3-5(7)8-4/h1-3H,(H4,6,7,8)

> <InChI Key_QSARr>
VHNQIURBCCNWDN-UHFFFAOYSA-N

> <Salt_Solvent>


> <Salt_Solvent_ID>
0

> <MPID>
100711

> <Tr_1_Tst_0>
1

> <Ready_Biodeg>
0.0

$$$$
Row692
  Mrv171c012251911052D          

 10 10  0  0  0  0            999 V2000
    1.0697   -2.8457    0.0000 C   0  0  0  0  0  0  0  0  0  0  0  0
    1.0697   -2.0207    0.0000 C   0  0  0  0  0  0  0  0  0  0  0  0
    1.7842   -1.6082    0.0000 C   0  0  0  0  0  0  0  0  0  0  0  0
    2.4986   -2.0207    0.0000 C   0  0  0  0  0  0  0  0  0  0  0  0
    3.2131   -1.6082    0.0000 C   0  0  0  0  0  0  0  0  0  0  0  0
    3.2131   -0.7832    0.0000 C   0  0  0  0  0  0  0  0  0  0  0  0
    2.4986   -0.3707    0.0000 C   0  0  0  0  0  0  0  0  0  0  0  0
    2.4986    0.4543    0.0000 C   0  0  0  0  0  0  0  0  0  0  0  0
    1.7842    0.8668    0.0000 C   0  0  0  0  0  0  0  0  0  0  0  0
    1.7842   -0.7832    0.0000 C   0  0  0  0  0  0  0  0  0  0  0  0
  1  2  1  0  0  0  0
  2  3  1  0  0  0  0
  4  3  1  0  0  0  0
  5  4  2  0  0  0  0
  6  5  1  0  0  0  0
  7  6  2  0  0  0  0
  7  8  1  0  0  0  0
  8  9  1  0  0  0  0
 10  7  1  0  0  0  0
  3 10  2  0  0  0  0
M  END
> <ChemID>
100703

> <CAS>
141-93-5

> <Original_SMILES>
CCc1cc(CC)ccc1

> <preferred_name>
1,3-Diethylbenzene

> <dsstox_substance_id>
DTXSID1022003

> <dsstox_compound_id>
DTXCID402003

> <qc_level>
DSSTox_Low

> <Canonical_QSARr>
CCC1C=C(CC)C=CC=1

> <InChI_Code_QSARr>
InChI=1S/C10H14/c1-3-9-6-5-7-10(4-2)8-9/h5-8H,3-4H2,1-2H3

> <InChI Key_QSARr>
AFZZYIJIWUTJFO-UHFFFAOYSA-N

> <Salt_Solvent>


> <Salt_Solvent_ID>
0

> <MPID>
100712

> <Tr_1_Tst_0>
1

> <Ready_Biodeg>
0.0

$$$$
Row693
  Mrv171c012251911052D          

  7  7  0  0  0  0            999 V2000
    0.1252    0.1768    0.0000 N   0  0  0  0  0  0  0  0  0  0  0  0
   -0.5893    0.5893    0.0000 C   0  0  0  0  0  0  0  0  0  0  0  0
   -0.5893    1.4143    0.0000 O   0  0  0  0  0  0  0  0  0  0  0  0
   -1.3038    0.1768    0.0000 C   0  0  0  0  0  0  0  0  0  0  0  0
   -1.3038   -0.6482    0.0000 C   0  0  0  0  0  0  0  0  0  0  0  0
   -0.5893   -1.0607    0.0000 C   0  0  0  0  0  0  0  0  0  0  0  0
    0.1252   -0.6482    0.0000 C   0  0  0  0  0  0  0  0  0  0  0  0
  2  1  1  0  0  0  0
  2  3  2  0  0  0  0
  4  2  1  0  0  0  0
  5  4  2  0  0  0  0
  6  5  1  0  0  0  0
  7  6  1  0  0  0  0
  1  7  2  0  0  0  0
M  END
> <ChemID>
100704

> <CAS>
142-08-5

> <Original_SMILES>
O=C1C=CC=CN1

> <preferred_name>
2-Pyridone

> <dsstox_substance_id>
DTXSID2051716

> <dsstox_compound_id>
DTXCID2030271

> <qc_level>
DSSTox_Low

> <Canonical_QSARr>
O=C1C=CCC=N1

> <InChI_Code_QSARr>
InChI=1S/C5H5NO/c7-5-3-1-2-4-6-5/h1,3-4H,2H2

> <InChI Key_QSARr>
CSMMEAYSMCAJPJ-UHFFFAOYSA-N

> <Salt_Solvent>


> <Salt_Solvent_ID>
0

> <MPID>
100713

> <Tr_1_Tst_0>
1

> <Ready_Biodeg>
1.0

$$$$
Row694
  Mrv171c012251911052D          

 26 25  0  0  0  0            999 V2000
    1.3776    9.0454    0.0000 C   0  0  0  0  0  0  0  0  0  0  0  0
    1.3776    8.2204    0.0000 C   0  0  0  0  0  0  0  0  0  0  0  0
    2.0921    7.8079    0.0000 C   0  0  0  0  0  0  0  0  0  0  0  0
    2.0921    6.9829    0.0000 C   0  0  0  0  0  0  0  0  0  0  0  0
    2.8066    6.5704    0.0000 C   0  0  0  0  0  0  0  0  0  0  0  0
    2.8066    5.7454    0.0000 C   0  0  0  0  0  0  0  0  0  0  0  0
    3.5211    5.3329    0.0000 C   0  0  0  0  0  0  0  0  0  0  0  0
    3.5211    4.5079    0.0000 C   0  0  0  0  0  0  0  0  0  0  0  0
    4.2355    4.0954    0.0000 C   0  0  0  0  0  0  0  0  0  0  0  0
    4.2355    3.2704    0.0000 C   0  0  0  0  0  0  0  0  0  0  0  0
    4.9500    2.8579    0.0000 C   0  0  0  0  0  0  0  0  0  0  0  0
    5.6645    3.2704    0.0000 C   0  0  0  0  0  0  0  0  0  0  0  0
    6.3789    2.8579    0.0000 C   0  0  0  0  0  0  0  0  0  0  0  0
    7.0934    3.2704    0.0000 C   0  0  0  0  0  0  0  0  0  0  0  0
    7.8079    2.8579    0.0000 C   0  0  0  0  0  0  0  0  0  0  0  0
    8.5224    3.2704    0.0000 C   0  0  0  0  0  0  0  0  0  0  0  0
    9.2368    2.8579    0.0000 C   0  0  0  0  0  0  0  0  0  0  0  0
    9.9513    3.2704    0.0000 C   0  0  0  0  0  0  0  0  0  0  0  0
    9.9513    4.0954    0.0000 O   0  0  0  0  0  0  0  0  0  0  0  0
   10.6658    2.8579    0.0000 O   0  0  0  0  0  0  0  0  0  0  0  0
   11.3802    3.2704    0.0000 C   0  0  0  0  0  0  0  0  0  0  0  0
   12.0947    2.8579    0.0000 C   0  0  0  0  0  0  0  0  0  0  0  0
   12.8092    3.2704    0.0000 S   0  0  0  0  0  0  0  0  0  0  0  0
   13.5237    3.6829    0.0000 O   0  0  0  0  0  0  0  0  0  0  0  0
   13.2217    2.5559    0.0000 O   0  0  0  0  0  0  0  0  0  0  0  0
   12.3967    3.9849    0.0000 O   0  0  0  0  0  0  0  0  0  0  0  0
  1  2  1  0  0  0  0
  2  3  1  0  0  0  0
  3  4  1  0  0  0  0
  4  5  1  0  0  0  0
  5  6  1  0  0  0  0
  6  7  1  0  0  0  0
  7  8  1  0  0  0  0
  9  8  1  4  0  0  0
  9 10  2  0  0  0  0
 10 11  1  0  0  0  0
 11 12  1  0  0  0  0
 12 13  1  0  0  0  0
 13 14  1  0  0  0  0
 14 15  1  0  0  0  0
 15 16  1  0  0  0  0
 16 17  1  0  0  0  0
 17 18  1  0  0  0  0
 18 19  2  0  0  0  0
 18 20  1  0  0  0  0
 20 21  1  0  0  0  0
 21 22  1  0  0  0  0
 22 23  1  0  0  0  0
 23 24  1  0  0  0  0
 23 25  2  0  0  0  0
 23 26  2  0  0  0  0
M  END
> <ChemID>
100705

> <CAS>
142-15-4

> <Original_SMILES>
[Na+].CCCCCCCC/C=C\CCCCCCCC(=O)OCCS([O-])(=O)=O

> <preferred_name>
2-Sulfoethyl oleate sodium salt

> <dsstox_substance_id>
DTXSID8041454

> <dsstox_compound_id>
DTXCID6021454

> <qc_level>
DSSTox_Low

> <Canonical_QSARr>
CCCCCCCCC=CCCCCCCCC(=O)OCCS(O)(=O)=O

> <InChI_Code_QSARr>
InChI=1S/C20H38O5S/c1-2-3-4-5-6-7-8-9-10-11-12-13-14-15-16-17-20(21)25-18-19-26(22,23)24/h9-10H,2-8,11-19H2,1H3,(H,22,23,24)

> <InChI Key_QSARr>
DHNWFKDQGWAXQE-UHFFFAOYSA-N

> <Salt_Solvent>
[Na+]

> <Salt_Solvent_ID>
110

> <MPID>
100714

> <Tr_1_Tst_0>
1

> <Ready_Biodeg>
1.0

$$$$
Row695
  Mrv171c012251911052D          

  5  5  0  0  0  0            999 V2000
    1.2319   -0.4506    0.0000 C   0  0  0  0  0  0  0  0  0  0  0  0
    0.5645    0.0343    0.0000 C   0  0  0  0  0  0  0  0  0  0  0  0
   -0.1029   -0.4506    0.0000 C   0  0  0  0  0  0  0  0  0  0  0  0
    0.1520   -1.2352    0.0000 C   0  0  0  0  0  0  0  0  0  0  0  0
    0.9770   -1.2352    0.0000 C   0  0  0  0  0  0  0  0  0  0  0  0
  2  1  1  0  0  0  0
  3  2  1  0  0  0  0
  4  3  1  0  0  0  0
  5  4  1  0  0  0  0
  1  5  2  0  0  0  0
M  END
> <ChemID>
100707

> <CAS>
142-29-0

> <Original_SMILES>
C1CCC=C1

> <preferred_name>
Cyclopentene

> <dsstox_substance_id>
DTXSID6029171

> <dsstox_compound_id>
DTXCID609171

> <qc_level>
DSSTox_Low

> <Canonical_QSARr>
C1CCC=C1

> <InChI_Code_QSARr>
InChI=1S/C5H8/c1-2-4-5-3-1/h1-2H,3-5H2

> <InChI Key_QSARr>
LPIQUOYDBNQMRZ-UHFFFAOYSA-N

> <Salt_Solvent>


> <Salt_Solvent_ID>
0

> <MPID>
100716

> <Tr_1_Tst_0>
0

> <Ready_Biodeg>
1.0

$$$$
Row696
  Mrv171c012251911052D          

  8  7  0  0  0  0            999 V2000
   -0.0022   -0.6195    0.0000 C   0  0  0  0  0  0  0  0  0  0  0  0
    0.7122   -1.0320    0.0000 C   0  0  0  0  0  0  0  0  0  0  0  0
    1.4267   -0.6195    0.0000 C   0  0  0  0  0  0  0  0  0  0  0  0
    2.1412   -1.0320    0.0000 C   0  0  0  0  0  0  0  0  0  0  0  0
    2.8556   -0.6195    0.0000 C   0  0  0  0  0  0  0  0  0  0  0  0
    3.5701   -1.0320    0.0000 C   0  0  0  0  0  0  0  0  0  0  0  0
    4.2846   -0.6195    0.0000 O   0  0  0  0  0  0  0  0  0  0  0  0
    3.5701   -1.8570    0.0000 O   0  0  0  0  0  0  0  0  0  0  0  0
  1  2  1  0  0  0  0
  2  3  1  0  0  0  0
  3  4  1  0  0  0  0
  4  5  1  0  0  0  0
  5  6  1  0  0  0  0
  6  7  2  0  0  0  0
  6  8  1  0  0  0  0
M  END
> <ChemID>
100708

> <CAS>
142-62-1

> <Original_SMILES>
CCCCCC(O)=O

> <preferred_name>
Hexanoic acid

> <dsstox_substance_id>
DTXSID7021607

> <dsstox_compound_id>
DTXCID101607

> <qc_level>
DSSTox_Low

> <Canonical_QSARr>
CCCCCC(O)=O

> <InChI_Code_QSARr>
InChI=1S/C6H12O2/c1-2-3-4-5-6(7)8/h2-5H2,1H3,(H,7,8)

> <InChI Key_QSARr>
FUZZWVXGSFPDMH-UHFFFAOYSA-N

> <Salt_Solvent>


> <Salt_Solvent_ID>
0

> <MPID>
100717

> <Tr_1_Tst_0>
1

> <Ready_Biodeg>
1.0

$$$$
Row697
  Mrv171c012251911052D          

 24 23  0  0  0  0            999 V2000
    4.7586    3.5724    0.0000 C   0  0  0  0  0  0  0  0  0  0  0  0
    5.4730    3.9849    0.0000 C   0  0  0  0  0  0  0  0  0  0  0  0
    6.1875    3.5724    0.0000 C   0  0  0  0  0  0  0  0  0  0  0  0
    6.9020    3.9849    0.0000 C   0  0  0  0  0  0  0  0  0  0  0  0
    7.6164    3.5724    0.0000 O   0  0  0  0  0  0  0  0  0  0  0  0
    8.3309    3.9849    0.0000 C   0  0  0  0  0  0  0  0  0  0  0  0
    8.3309    4.8099    0.0000 O   0  0  0  0  0  0  0  0  0  0  0  0
    9.0454    3.5724    0.0000 C   0  0  0  0  0  0  0  0  0  0  0  0
    9.7599    3.9849    0.0000 C   0  0  0  0  0  0  0  0  0  0  0  0
   10.4743    3.5724    0.0000 C   0  0  0  0  0  0  0  0  0  0  0  0
   11.1888    3.9849    0.0000 C   0  0  0  0  0  0  0  0  0  0  0  0
   11.9033    3.5724    0.0000 C   0  0  0  0  0  0  0  0  0  0  0  0
   12.6177    3.9849    0.0000 C   0  0  0  0  0  0  0  0  0  0  0  0
   13.3322    3.5724    0.0000 C   0  0  0  0  0  0  0  0  0  0  0  0
   14.0467    3.9849    0.0000 C   0  0  0  0  0  0  0  0  0  0  0  0
   14.7612    3.5724    0.0000 C   0  0  0  0  0  0  0  0  0  0  0  0
   15.4756    3.9849    0.0000 C   0  0  0  0  0  0  0  0  0  0  0  0
   15.4756    4.8099    0.0000 C   0  0  0  0  0  0  0  0  0  0  0  0
   16.1901    5.2224    0.0000 C   0  0  0  0  0  0  0  0  0  0  0  0
   16.1901    6.0474    0.0000 C   0  0  0  0  0  0  0  0  0  0  0  0
   16.9046    6.4599    0.0000 C   0  0  0  0  0  0  0  0  0  0  0  0
   16.9046    7.2849    0.0000 C   0  0  0  0  0  0  0  0  0  0  0  0
   17.6190    7.6974    0.0000 C   0  0  0  0  0  0  0  0  0  0  0  0
   17.6190    8.5224    0.0000 C   0  0  0  0  0  0  0  0  0  0  0  0
  1  2  1  0  0  0  0
  2  3  1  0  0  0  0
  3  4  1  0  0  0  0
  4  5  1  0  0  0  0
  5  6  1  0  0  0  0
  6  7  2  0  0  0  0
  6  8  1  0  0  0  0
  8  9  1  0  0  0  0
  9 10  1  0  0  0  0
 10 11  1  0  0  0  0
 11 12  1  0  0  0  0
 12 13  1  0  0  0  0
 13 14  1  0  0  0  0
 15 14  1  4  0  0  0
 15 16  2  0  0  0  0
 16 17  1  0  0  0  0
 17 18  1  0  0  0  0
 18 19  1  0  0  0  0
 19 20  1  0  0  0  0
 20 21  1  0  0  0  0
 21 22  1  0  0  0  0
 22 23  1  0  0  0  0
 23 24  1  0  0  0  0
M  END
> <ChemID>
100709

> <CAS>
142-77-8

> <Original_SMILES>
CCCCOC(=O)CCCCCCC/C=C\CCCCCCCC

> <preferred_name>
9-Octadecenoic acid (9Z)-, butyl ester

> <dsstox_substance_id>
DTXSID7027099

> <dsstox_compound_id>
DTXCID007099

> <qc_level>
DSSTox_Low

> <Canonical_QSARr>
CCCCOC(=O)CCCCCCCC=CCCCCCCCC

> <InChI_Code_QSARr>
InChI=1S/C22H42O2/c1-3-5-7-8-9-10-11-12-13-14-15-16-17-18-19-20-22(23)24-21-6-4-2/h12-13H,3-11,14-21H2,1-2H3

> <InChI Key_QSARr>
WIBFFTLQMKKBLZ-UHFFFAOYSA-N

> <Salt_Solvent>


> <Salt_Solvent_ID>
0

> <MPID>
100718

> <Tr_1_Tst_0>
1

> <Ready_Biodeg>
1.0

$$$$
Row698
  Mrv171c012251911052D          

  7  6  0  0  0  0            999 V2000
    0.7182   -0.4688    0.0000 C   0  0  0  0  0  0  0  0  0  0  0  0
    0.0038   -0.0563    0.0000 C   0  0  0  0  0  0  0  0  0  0  0  0
    1.4327   -0.0563    0.0000 C   0  0  0  0  0  0  0  0  0  0  0  0
    2.1472   -0.4688    0.0000 C   0  0  0  0  0  0  0  0  0  0  0  0
    2.8617   -0.0563    0.0000 C   0  0  0  0  0  0  0  0  0  0  0  0
    3.5761   -0.4688    0.0000 C   0  0  0  0  0  0  0  0  0  0  0  0
    4.2906   -0.0563    0.0000 C   0  0  0  0  0  0  0  0  0  0  0  0
  1  2  1  0  0  0  0
  1  3  1  0  0  0  0
  3  4  1  0  0  0  0
  4  5  1  0  0  0  0
  5  6  1  0  0  0  0
  6  7  1  0  0  0  0
M  END
> <ChemID>
100710

> <CAS>
142-82-5

> <Original_SMILES>
CCCCCCC

> <preferred_name>
Heptane

> <dsstox_substance_id>
DTXSID6024127

> <dsstox_compound_id>
DTXCID004127

> <qc_level>
DSSTox_Low

> <Canonical_QSARr>
CCCCCCC

> <InChI_Code_QSARr>
InChI=1S/C7H16/c1-3-5-7-6-4-2/h3-7H2,1-2H3

> <InChI Key_QSARr>
IMNFDUFMRHMDMM-UHFFFAOYSA-N

> <Salt_Solvent>


> <Salt_Solvent_ID>
0

> <MPID>
100719

> <Tr_1_Tst_0>
1

> <Ready_Biodeg>
1.0

$$$$
Row699
  Mrv171c012251911052D          

  7  6  0  0  0  0            999 V2000
    2.1415   -0.4707    0.0000 N   0  0  0  0  0  0  0  0  0  0  0  0
    1.4271   -0.0582    0.0000 C   0  0  0  0  0  0  0  0  0  0  0  0
    0.7126   -0.4707    0.0000 C   0  0  0  0  0  0  0  0  0  0  0  0
   -0.0019   -0.0582    0.0000 C   0  0  0  0  0  0  0  0  0  0  0  0
    2.8560   -0.0582    0.0000 C   0  0  0  0  0  0  0  0  0  0  0  0
    3.5705   -0.4707    0.0000 C   0  0  0  0  0  0  0  0  0  0  0  0
    4.2850   -0.0582    0.0000 C   0  0  0  0  0  0  0  0  0  0  0  0
  1  2  1  0  0  0  0
  2  3  1  0  0  0  0
  3  4  1  0  0  0  0
  1  5  1  0  0  0  0
  5  6  1  0  0  0  0
  6  7  1  0  0  0  0
M  END
> <ChemID>
100711

> <CAS>
142-84-7

> <Original_SMILES>
CCCNCCC

> <preferred_name>
Dipropylamine

> <dsstox_substance_id>
DTXSID2025185

> <dsstox_compound_id>
DTXCID105185

> <qc_level>
DSSTox_Low

> <Canonical_QSARr>
CCCNCCC

> <InChI_Code_QSARr>
InChI=1S/C6H15N/c1-3-5-7-6-4-2/h7H,3-6H2,1-2H3

> <InChI Key_QSARr>
WEHWNAOGRSTTBQ-UHFFFAOYSA-N

> <Salt_Solvent>


> <Salt_Solvent_ID>
0

> <MPID>
100720

> <Tr_1_Tst_0>
0

> <Ready_Biodeg>
1.0

$$$$
Row700
  Mrv171c012251911052D          

  9  8  0  0  0  0            999 V2000
    0.0017   -0.0454    0.0000 C   0  0  0  0  0  0  0  0  0  0  0  0
    0.7161   -0.4579    0.0000 C   0  0  0  0  0  0  0  0  0  0  0  0
    1.4306   -0.0454    0.0000 C   0  0  0  0  0  0  0  0  0  0  0  0
    2.1451   -0.4579    0.0000 C   0  0  0  0  0  0  0  0  0  0  0  0
    2.8595   -0.0454    0.0000 O   0  0  0  0  0  0  0  0  0  0  0  0
    3.5740   -0.4579    0.0000 C   0  0  0  0  0  0  0  0  0  0  0  0
    4.2885   -0.0454    0.0000 C   0  0  0  0  0  0  0  0  0  0  0  0
    5.0030   -0.4579    0.0000 C   0  0  0  0  0  0  0  0  0  0  0  0
    5.7174   -0.0454    0.0000 C   0  0  0  0  0  0  0  0  0  0  0  0
  1  2  1  0  0  0  0
  2  3  1  0  0  0  0
  3  4  1  0  0  0  0
  4  5  1  0  0  0  0
  5  6  1  0  0  0  0
  6  7  1  0  0  0  0
  7  8  1  0  0  0  0
  8  9  1  0  0  0  0
M  END
> <ChemID>
100712

> <CAS>
142-96-1

> <Original_SMILES>
CCCCOCCCC

> <preferred_name>
Butyl ether

> <dsstox_substance_id>
DTXSID1022007

> <dsstox_compound_id>
DTXCID002007

> <qc_level>
DSSTox_Low

> <Canonical_QSARr>
CCCCOCCCC

> <InChI_Code_QSARr>
InChI=1S/C8H18O/c1-3-5-7-9-8-6-4-2/h3-8H2,1-2H3

> <InChI Key_QSARr>
DURPTKYDGMDSBL-UHFFFAOYSA-N

> <Salt_Solvent>


> <Salt_Solvent_ID>
0

> <MPID>
100721

> <Tr_1_Tst_0>
1

> <Ready_Biodeg>
0.0

$$$$
Row701
  Mrv171c012251911052D          

 10  9  0  0  0  0            999 V2000
    0.0045   -0.4123    0.0000 C   0  0  0  0  0  0  0  0  0  0  0  0
    0.7189    0.0002    0.0000 C   0  0  0  0  0  0  0  0  0  0  0  0
    1.4334   -0.4123    0.0000 C   0  0  0  0  0  0  0  0  0  0  0  0
    2.1479    0.0002    0.0000 C   0  0  0  0  0  0  0  0  0  0  0  0
    2.8624   -0.4123    0.0000 C   0  0  0  0  0  0  0  0  0  0  0  0
    3.5768    0.0002    0.0000 C   0  0  0  0  0  0  0  0  0  0  0  0
    4.2913   -0.4123    0.0000 C   0  0  0  0  0  0  0  0  0  0  0  0
    5.0058    0.0002    0.0000 C   0  0  0  0  0  0  0  0  0  0  0  0
    5.7202   -0.4123    0.0000 C   0  0  0  0  0  0  0  0  0  0  0  0
    6.4347    0.0002    0.0000 O   0  0  0  0  0  0  0  0  0  0  0  0
  1  2  1  0  0  0  0
  2  3  1  0  0  0  0
  3  4  1  0  0  0  0
  4  5  1  0  0  0  0
  5  6  1  0  0  0  0
  6  7  1  0  0  0  0
  7  8  1  0  0  0  0
  8  9  1  0  0  0  0
  9 10  1  0  0  0  0
M  END
> <ChemID>
100713

> <CAS>
143-08-8

> <Original_SMILES>
CCCCCCCCCO

> <preferred_name>
1-Nonanol

> <dsstox_substance_id>
DTXSID6022008

> <dsstox_compound_id>
DTXCID402008

> <qc_level>
DSSTox_Low

> <Canonical_QSARr>
CCCCCCCCCO

> <InChI_Code_QSARr>
InChI=1S/C9H20O/c1-2-3-4-5-6-7-8-9-10/h10H,2-9H2,1H3

> <InChI Key_QSARr>
ZWRUINPWMLAQRD-UHFFFAOYSA-N

> <Salt_Solvent>


> <Salt_Solvent_ID>
0

> <MPID>
100722

> <Tr_1_Tst_0>
1

> <Ready_Biodeg>
1.0

$$$$
Row702
  Mrv171c012251911052D          

 19 18  0  0  0  0            999 V2000
   -4.1467    2.5559    0.0000 C   0  0  0  0  0  0  0  0  0  0  0  0
   -3.4322    2.1434    0.0000 C   0  0  0  0  0  0  0  0  0  0  0  0
   -2.7177    2.5559    0.0000 C   0  0  0  0  0  0  0  0  0  0  0  0
   -2.0033    2.1434    0.0000 C   0  0  0  0  0  0  0  0  0  0  0  0
   -1.2888    2.5559    0.0000 C   0  0  0  0  0  0  0  0  0  0  0  0
   -0.5743    2.1434    0.0000 C   0  0  0  0  0  0  0  0  0  0  0  0
    0.1401    2.5559    0.0000 C   0  0  0  0  0  0  0  0  0  0  0  0
    0.8546    2.1434    0.0000 C   0  0  0  0  0  0  0  0  0  0  0  0
    1.5691    2.5559    0.0000 C   0  0  0  0  0  0  0  0  0  0  0  0
    2.2836    2.1434    0.0000 C   0  0  0  0  0  0  0  0  0  0  0  0
    2.9980    2.5559    0.0000 C   0  0  0  0  0  0  0  0  0  0  0  0
    3.7125    2.1434    0.0000 C   0  0  0  0  0  0  0  0  0  0  0  0
    4.4270    2.5559    0.0000 C   0  0  0  0  0  0  0  0  0  0  0  0
    5.1414    2.1434    0.0000 C   0  0  0  0  0  0  0  0  0  0  0  0
    5.8559    2.5559    0.0000 C   0  0  0  0  0  0  0  0  0  0  0  0
    6.5704    2.1434    0.0000 C   0  0  0  0  0  0  0  0  0  0  0  0
    7.2849    2.5559    0.0000 C   0  0  0  0  0  0  0  0  0  0  0  0
    7.9993    2.1434    0.0000 C   0  0  0  0  0  0  0  0  0  0  0  0
    8.7138    2.5559    0.0000 O   0  0  0  0  0  0  0  0  0  0  0  0
  1  2  1  0  0  0  0
  2  3  1  0  0  0  0
  3  4  1  0  0  0  0
  4  5  1  0  0  0  0
  5  6  1  0  0  0  0
  6  7  1  0  0  0  0
  7  8  1  0  0  0  0
  9  8  1  4  0  0  0
  9 10  2  0  0  0  0
 10 11  1  0  0  0  0
 11 12  1  0  0  0  0
 12 13  1  0  0  0  0
 13 14  1  0  0  0  0
 14 15  1  0  0  0  0
 15 16  1  0  0  0  0
 16 17  1  0  0  0  0
 17 18  1  0  0  0  0
 18 19  1  0  0  0  0
M  END
> <ChemID>
100714

> <CAS>
143-28-2

> <Original_SMILES>
CCCCCCCC/C=C\CCCCCCCCO

> <preferred_name>
(9Z)-Octadec-9-en-1-ol

> <dsstox_substance_id>
DTXSID0022010

> <dsstox_compound_id>
DTXCID502010

> <qc_level>
DSSTox_Low

> <Canonical_QSARr>
CCCCCCCCC=CCCCCCCCCO

> <InChI_Code_QSARr>
InChI=1S/C18H36O/c1-2-3-4-5-6-7-8-9-10-11-12-13-14-15-16-17-18-19/h9-10,19H,2-8,11-18H2,1H3

> <InChI Key_QSARr>
ALSTYHKOOCGGFT-UHFFFAOYSA-N

> <Salt_Solvent>


> <Salt_Solvent_ID>
0

> <MPID>
100723

> <Tr_1_Tst_0>
1

> <Ready_Biodeg>
1.0

$$$$
Row703
  Mrv171c012251911052D          

 10  9  0  0  0  0            999 V2000
    1.1841    0.0590    0.0000 C   0  0  0  0  0  0  0  0  0  0  0  0
    1.5966    0.7735    0.0000 O   0  0  0  0  0  0  0  0  0  0  0  0
    1.5966   -0.6554    0.0000 C   0  0  0  0  0  0  0  0  0  0  0  0
    0.8822   -1.0679    0.0000 C   0  0  0  0  0  0  0  0  0  0  0  0
    2.3111   -0.2429    0.0000 C   0  0  0  0  0  0  0  0  0  0  0  0
    2.0091   -1.3699    0.0000 C   0  0  0  0  0  0  0  0  0  0  0  0
    2.8341   -1.3699    0.0000 O   0  0  0  0  0  0  0  0  0  0  0  0
    1.5966   -2.0844    0.0000 C   0  0  0  0  0  0  0  0  0  0  0  0
    2.0091   -2.7989    0.0000 C   0  0  0  0  0  0  0  0  0  0  0  0
    0.7716   -2.0844    0.0000 C   0  0  0  0  0  0  0  0  0  0  0  0
  1  2  1  0  0  0  0
  1  3  1  0  0  0  0
  3  4  1  0  0  0  0
  3  5  1  0  0  0  0
  3  6  1  0  0  0  0
  6  7  1  0  0  0  0
  6  8  1  0  0  0  0
  8  9  1  0  0  0  0
  8 10  1  0  0  0  0
M  END
> <ChemID>
100715

> <CAS>
144-19-4

> <Original_SMILES>
CC(C)C(O)C(C)(C)CO

> <preferred_name>
2,2,4-Trimethyl-1,3-pentanediol

> <dsstox_substance_id>
DTXSID8027113

> <dsstox_compound_id>
DTXCID407113

> <qc_level>
DSSTox_Low

> <Canonical_QSARr>
CC(C)C(O)C(C)(C)CO

> <InChI_Code_QSARr>
InChI=1S/C8H18O2/c1-6(2)7(10)8(3,4)5-9/h6-7,9-10H,5H2,1-4H3

> <InChI Key_QSARr>
JCTXKRPTIMZBJT-UHFFFAOYSA-N

> <Salt_Solvent>


> <Salt_Solvent_ID>
0

> <MPID>
100724

> <Tr_1_Tst_0>
0

> <Ready_Biodeg>
1.0

$$$$
Row704
  Mrv171c012251911052D          

  6  5  0  0  0  0            999 V2000
    0.8241   -1.4283    0.0000 C   0  0  0  0  0  0  0  0  0  0  0  0
    1.2366   -0.7138    0.0000 C   0  0  0  0  0  0  0  0  0  0  0  0
    0.8241    0.0007    0.0000 O   0  0  0  0  0  0  0  0  0  0  0  0
    2.0616   -0.7138    0.0000 O   0  0  0  0  0  0  0  0  0  0  0  0
    1.2366   -2.1427    0.0000 O   0  0  0  0  0  0  0  0  0  0  0  0
   -0.0009   -1.4283    0.0000 O   0  0  0  0  0  0  0  0  0  0  0  0
  1  2  1  0  0  0  0
  2  3  1  0  0  0  0
  2  4  2  0  0  0  0
  1  5  1  0  0  0  0
  1  6  2  0  0  0  0
M  END
> <ChemID>
100716

> <CAS>
144-62-7

> <Original_SMILES>
OC(=O)C(O)=O

> <preferred_name>
Oxalic acid

> <dsstox_substance_id>
DTXSID0025816

> <dsstox_compound_id>
DTXCID805816

> <qc_level>
DSSTox_High

> <Canonical_QSARr>
OC(=O)C(O)=O

> <InChI_Code_QSARr>
InChI=1S/C2H2O4/c3-1(4)2(5)6/h(H,3,4)(H,5,6)

> <InChI Key_QSARr>
MUBZPKHOEPUJKR-UHFFFAOYSA-N

> <Salt_Solvent>


> <Salt_Solvent_ID>
0

> <MPID>
100725

> <Tr_1_Tst_0>
1

> <Ready_Biodeg>
1.0

$$$$
Row705
  Mrv171c012251911052D          

 10 11  0  0  0  0            999 V2000
   -0.0016   -0.8236    0.0000 S   0  0  0  0  0  0  0  0  0  0  0  0
    0.8234   -0.8236    0.0000 C   0  0  0  0  0  0  0  0  0  0  0  0
    1.3084   -0.1562    0.0000 S   0  0  0  0  0  0  0  0  0  0  0  0
    2.0930   -0.4111    0.0000 C   0  0  0  0  0  0  0  0  0  0  0  0
    2.8075    0.0014    0.0000 C   0  0  0  0  0  0  0  0  0  0  0  0
    3.5219   -0.4111    0.0000 C   0  0  0  0  0  0  0  0  0  0  0  0
    3.5219   -1.2361    0.0000 C   0  0  0  0  0  0  0  0  0  0  0  0
    2.8075   -1.6486    0.0000 C   0  0  0  0  0  0  0  0  0  0  0  0
    2.0930   -1.2361    0.0000 C   0  0  0  0  0  0  0  0  0  0  0  0
    1.3084   -1.4911    0.0000 N   0  0  0  0  0  0  0  0  0  0  0  0
  1  2  1  0  0  0  0
  3  2  1  0  0  0  0
  4  3  1  0  0  0  0
  4  5  1  0  0  0  0
  5  6  2  0  0  0  0
  6  7  1  0  0  0  0
  7  8  2  0  0  0  0
  8  9  1  0  0  0  0
  9  4  2  0  0  0  0
 10  9  1  0  0  0  0
  2 10  2  0  0  0  0
M  END
> <ChemID>
100717

> <CAS>
149-30-4

> <Original_SMILES>
Sc1[n]c2ccccc2[s]1

> <preferred_name>
2-Mercaptobenzothiazole

> <dsstox_substance_id>
DTXSID1020807

> <dsstox_compound_id>
DTXCID90807

> <qc_level>
DSSTox_High

> <Canonical_QSARr>
SC1=NC2C=CC=CC=2S1

> <InChI_Code_QSARr>
InChI=1S/C7H5NS2/c9-7-8-5-3-1-2-4-6(5)10-7/h1-4H,(H,8,9)

> <InChI Key_QSARr>
YXIWHUQXZSMYRE-UHFFFAOYSA-N

> <Salt_Solvent>


> <Salt_Solvent_ID>
0

> <MPID>
100726

> <Tr_1_Tst_0>
1

> <Ready_Biodeg>
1.0

$$$$
Row706
  Mrv171c012251911052D          

 10 10  0  0  0  0            999 V2000
    0.9322   -2.3640    0.0000 O   0  0  0  0  0  0  0  0  0  0  0  0
    1.6467   -1.9515    0.0000 C   0  0  0  0  0  0  0  0  0  0  0  0
    1.6467   -1.1265    0.0000 C   0  0  0  0  0  0  0  0  0  0  0  0
    2.3611   -0.7140    0.0000 C   0  0  0  0  0  0  0  0  0  0  0  0
    2.3611    0.1110    0.0000 C   0  0  0  0  0  0  0  0  0  0  0  0
    1.6467    0.5235    0.0000 C   0  0  0  0  0  0  0  0  0  0  0  0
    1.6467    1.3485    0.0000 N   0  0  0  0  0  0  0  0  0  0  0  0
    0.9322    0.1110    0.0000 C   0  0  0  0  0  0  0  0  0  0  0  0
    0.9322   -0.7140    0.0000 C   0  0  0  0  0  0  0  0  0  0  0  0
    2.3611   -2.3640    0.0000 O   0  0  0  0  0  0  0  0  0  0  0  0
  1  2  2  0  0  0  0
  2  3  1  0  0  0  0
  4  3  1  0  0  0  0
  5  4  2  0  0  0  0
  6  5  1  0  0  0  0
  6  7  1  0  0  0  0
  8  6  2  0  0  0  0
  9  8  1  0  0  0  0
  3  9  2  0  0  0  0
  2 10  1  0  0  0  0
M  END
> <ChemID>
100718

> <CAS>
150-13-0

> <Original_SMILES>
Nc1ccc(cc1)C(O)=O

> <preferred_name>
4-Aminobenzoic acid

> <dsstox_substance_id>
DTXSID6024466

> <dsstox_compound_id>
DTXCID404466

> <qc_level>
DSSTox_Low

> <Canonical_QSARr>
NC1=CC=C(C=C1)C(O)=O

> <InChI_Code_QSARr>
InChI=1S/C7H7NO2/c8-6-3-1-5(2-4-6)7(9)10/h1-4H,8H2,(H,9,10)

> <InChI Key_QSARr>
ALYNCZNDIQEVRV-UHFFFAOYSA-N

> <Salt_Solvent>


> <Salt_Solvent_ID>
0

> <MPID>
100727

> <Tr_1_Tst_0>
1

> <Ready_Biodeg>
1.0

$$$$
Row707
  Mrv171c012251911052D          

  9  9  0  0  0  0            999 V2000
    0.7139   -2.2010    0.0000 O   0  0  0  0  0  0  0  0  0  0  0  0
    1.4284   -1.7885    0.0000 C   0  0  0  0  0  0  0  0  0  0  0  0
    2.1429   -2.2010    0.0000 C   0  0  0  0  0  0  0  0  0  0  0  0
    2.8573   -1.7885    0.0000 C   0  0  0  0  0  0  0  0  0  0  0  0
    2.8573   -0.9635    0.0000 C   0  0  0  0  0  0  0  0  0  0  0  0
    2.1429   -0.5510    0.0000 C   0  0  0  0  0  0  0  0  0  0  0  0
    2.1429    0.2740    0.0000 O   0  0  0  0  0  0  0  0  0  0  0  0
    1.4284    0.6865    0.0000 C   0  0  0  0  0  0  0  0  0  0  0  0
    1.4284   -0.9635    0.0000 C   0  0  0  0  0  0  0  0  0  0  0  0
  1  2  1  0  0  0  0
  3  2  1  0  0  0  0
  4  3  2  0  0  0  0
  5  4  1  0  0  0  0
  6  5  2  0  0  0  0
  6  7  1  0  0  0  0
  7  8  1  0  0  0  0
  9  6  1  0  0  0  0
  2  9  2  0  0  0  0
M  END
> <ChemID>
100719

> <CAS>
150-19-6

> <Original_SMILES>
COc1cccc(O)c1

> <preferred_name>
3-Methoxyphenol

> <dsstox_substance_id>
DTXSID0022012

> <dsstox_compound_id>
DTXCID302012

> <qc_level>
DSSTox_Low

> <Canonical_QSARr>
COC1C=C(O)C=CC=1

> <InChI_Code_QSARr>
InChI=1S/C7H8O2/c1-9-7-4-2-3-6(8)5-7/h2-5,8H,1H3

> <InChI Key_QSARr>
ASHGTJPOSUFTGB-UHFFFAOYSA-N

> <Salt_Solvent>


> <Salt_Solvent_ID>
0

> <MPID>
100728

> <Tr_1_Tst_0>
0

> <Ready_Biodeg>
1.0

$$$$
Row708
  Mrv171c012251911052D          

  9  9  0  0  0  0            999 V2000
    1.1946   -2.4682    0.0000 C   0  0  0  0  0  0  0  0  0  0  0  0
    1.9091   -2.0557    0.0000 O   0  0  0  0  0  0  0  0  0  0  0  0
    1.9091   -1.2307    0.0000 C   0  0  0  0  0  0  0  0  0  0  0  0
    2.6235   -0.8182    0.0000 C   0  0  0  0  0  0  0  0  0  0  0  0
    2.6235    0.0068    0.0000 C   0  0  0  0  0  0  0  0  0  0  0  0
    1.9091    0.4193    0.0000 C   0  0  0  0  0  0  0  0  0  0  0  0
    1.9091    1.2443    0.0000 O   0  0  0  0  0  0  0  0  0  0  0  0
    1.1946    0.0068    0.0000 C   0  0  0  0  0  0  0  0  0  0  0  0
    1.1946   -0.8182    0.0000 C   0  0  0  0  0  0  0  0  0  0  0  0
  1  2  1  0  0  0  0
  2  3  1  0  0  0  0
  4  3  1  0  0  0  0
  5  4  2  0  0  0  0
  6  5  1  0  0  0  0
  6  7  1  0  0  0  0
  8  6  2  0  0  0  0
  9  8  1  0  0  0  0
  3  9  2  0  0  0  0
M  END
> <ChemID>
100720

> <CAS>
150-76-5

> <Original_SMILES>
COc1ccc(O)cc1

> <preferred_name>
4-Methoxyphenol

> <dsstox_substance_id>
DTXSID4020828

> <dsstox_compound_id>
DTXCID60828

> <qc_level>
DSSTox_Low

> <Canonical_QSARr>
COC1C=CC(O)=CC=1

> <InChI_Code_QSARr>
InChI=1S/C7H8O2/c1-9-7-4-2-6(8)3-5-7/h2-5,8H,1H3

> <InChI Key_QSARr>
NWVVVBRKAWDGAB-UHFFFAOYSA-N

> <Salt_Solvent>


> <Salt_Solvent_ID>
0

> <MPID>
100729

> <Tr_1_Tst_0>
1

> <Ready_Biodeg>
1.0

$$$$
Row709
  Mrv171c012251911052D          

 10 10  0  0  0  0            999 V2000
    1.4926   -2.7767    0.0000 C   0  0  0  0  0  0  0  0  0  0  0  0
    2.2071   -2.3642    0.0000 O   0  0  0  0  0  0  0  0  0  0  0  0
    2.2071   -1.5392    0.0000 C   0  0  0  0  0  0  0  0  0  0  0  0
    2.9216   -1.1267    0.0000 C   0  0  0  0  0  0  0  0  0  0  0  0
    2.9216   -0.3017    0.0000 C   0  0  0  0  0  0  0  0  0  0  0  0
    2.2071    0.1108    0.0000 C   0  0  0  0  0  0  0  0  0  0  0  0
    2.2071    0.9358    0.0000 O   0  0  0  0  0  0  0  0  0  0  0  0
    1.4926    1.3483    0.0000 C   0  0  0  0  0  0  0  0  0  0  0  0
    1.4926   -0.3017    0.0000 C   0  0  0  0  0  0  0  0  0  0  0  0
    1.4926   -1.1267    0.0000 C   0  0  0  0  0  0  0  0  0  0  0  0
  1  2  1  0  0  0  0
  2  3  1  0  0  0  0
  4  3  1  0  0  0  0
  5  4  2  0  0  0  0
  6  5  1  0  0  0  0
  6  7  1  0  0  0  0
  7  8  1  0  0  0  0
  9  6  2  0  0  0  0
 10  9  1  0  0  0  0
  3 10  2  0  0  0  0
M  END
> <ChemID>
100721

> <CAS>
150-78-7

> <Original_SMILES>
COc1ccc(cc1)OC

> <preferred_name>
Hydroquinone dimethyl ether

> <dsstox_substance_id>
DTXSID0022014

> <dsstox_compound_id>
DTXCID102014

> <qc_level>
DSSTox_Low

> <Canonical_QSARr>
COC1C=CC(=CC=1)OC

> <InChI_Code_QSARr>
InChI=1S/C8H10O2/c1-9-7-3-5-8(10-2)6-4-7/h3-6H,1-2H3

> <InChI Key_QSARr>
OHBQPCCCRFSCAX-UHFFFAOYSA-N

> <Salt_Solvent>


> <Salt_Solvent_ID>
0

> <MPID>
100730

> <Tr_1_Tst_0>
1

> <Ready_Biodeg>
1.0

$$$$
Row710
  Mrv171c012251911052D          

 10 10  0  0  0  0            999 V2000
    2.5686   -0.4119    0.0000 C   0  0  0  0  0  0  0  0  0  0  0  0
    1.8542    0.0006    0.0000 C   0  0  0  0  0  0  0  0  0  0  0  0
    1.8542    0.8256    0.0000 O   0  0  0  0  0  0  0  0  0  0  0  0
    1.1397    1.2381    0.0000 C   0  0  0  0  0  0  0  0  0  0  0  0
    1.1397   -0.4119    0.0000 C   0  0  0  0  0  0  0  0  0  0  0  0
    1.1397   -1.2369    0.0000 C   0  0  0  0  0  0  0  0  0  0  0  0
    1.8542   -1.6494    0.0000 C   0  0  0  0  0  0  0  0  0  0  0  0
    2.5686   -1.2369    0.0000 C   0  0  0  0  0  0  0  0  0  0  0  0
    3.2831   -1.6494    0.0000 O   0  0  0  0  0  0  0  0  0  0  0  0
    3.9976   -1.2369    0.0000 C   0  0  0  0  0  0  0  0  0  0  0  0
  2  1  1  0  0  0  0
  2  3  1  0  0  0  0
  3  4  1  0  0  0  0
  5  2  2  0  0  0  0
  6  5  1  0  0  0  0
  7  6  2  0  0  0  0
  8  7  1  0  0  0  0
  1  8  2  0  0  0  0
  8  9  1  0  0  0  0
  9 10  1  0  0  0  0
M  END
> <ChemID>
100722

> <CAS>
151-10-0

> <Original_SMILES>
COc1cc(ccc1)OC

> <preferred_name>
1,3-Dimethoxybenzene

> <dsstox_substance_id>
DTXSID2047060

> <dsstox_compound_id>
DTXCID0027060

> <qc_level>
DSSTox_Low

> <Canonical_QSARr>
COC1C=C(C=CC=1)OC

> <InChI_Code_QSARr>
InChI=1S/C8H10O2/c1-9-7-4-3-5-8(6-7)10-2/h3-6H,1-2H3

> <InChI Key_QSARr>
DPZNOMCNRMUKPS-UHFFFAOYSA-N

> <Salt_Solvent>


> <Salt_Solvent_ID>
0

> <MPID>
100731

> <Tr_1_Tst_0>
1

> <Ready_Biodeg>
1.0

$$$$
Row711
  Mrv171c012251911052D          

 17 16  0  0  0  0            999 V2000
    1.6866   -1.1514    0.0000 S   0  0  0  0  0  0  0  0  0  0  0  0
    2.4010   -0.7389    0.0000 O   0  0  0  0  0  0  0  0  0  0  0  0
    3.1155   -1.1514    0.0000 C   0  0  0  0  0  0  0  0  0  0  0  0
    3.8300   -0.7389    0.0000 C   0  0  0  0  0  0  0  0  0  0  0  0
    4.5444   -1.1514    0.0000 C   0  0  0  0  0  0  0  0  0  0  0  0
    5.2589   -0.7389    0.0000 C   0  0  0  0  0  0  0  0  0  0  0  0
    5.9734   -1.1514    0.0000 C   0  0  0  0  0  0  0  0  0  0  0  0
    6.6879   -0.7389    0.0000 C   0  0  0  0  0  0  0  0  0  0  0  0
    7.4023   -1.1514    0.0000 C   0  0  0  0  0  0  0  0  0  0  0  0
    8.1168   -0.7389    0.0000 C   0  0  0  0  0  0  0  0  0  0  0  0
    8.8313   -1.1514    0.0000 C   0  0  0  0  0  0  0  0  0  0  0  0
    9.5457   -0.7389    0.0000 C   0  0  0  0  0  0  0  0  0  0  0  0
   10.2602   -1.1514    0.0000 C   0  0  0  0  0  0  0  0  0  0  0  0
   10.9747   -0.7389    0.0000 C   0  0  0  0  0  0  0  0  0  0  0  0
    0.9721   -1.5639    0.0000 O   0  0  0  0  0  0  0  0  0  0  0  0
    1.2741   -0.4369    0.0000 O   0  0  0  0  0  0  0  0  0  0  0  0
    2.0991   -1.8659    0.0000 O   0  0  0  0  0  0  0  0  0  0  0  0
  1  2  1  0  0  0  0
  2  3  1  0  0  0  0
  3  4  1  0  0  0  0
  4  5  1  0  0  0  0
  5  6  1  0  0  0  0
  6  7  1  0  0  0  0
  7  8  1  0  0  0  0
  8  9  1  0  0  0  0
  9 10  1  0  0  0  0
 10 11  1  0  0  0  0
 11 12  1  0  0  0  0
 12 13  1  0  0  0  0
 13 14  1  0  0  0  0
  1 15  1  0  0  0  0
  1 16  2  0  0  0  0
  1 17  2  0  0  0  0
M  END
> <ChemID>
100723

> <CAS>
151-41-7

> <Original_SMILES>
CCCCCCCCCCCCOS(O)(=O)=O

> <preferred_name>
Lauryl sulfate

> <dsstox_substance_id>
DTXSID0042088

> <dsstox_compound_id>
DTXCID8022088

> <qc_level>
DSSTox_Low

> <Canonical_QSARr>
CCCCCCCCCCCCOS(O)(=O)=O

> <InChI_Code_QSARr>
InChI=1S/C12H26O4S/c1-2-3-4-5-6-7-8-9-10-11-12-16-17(13,14)15/h2-12H2,1H3,(H,13,14,15)

> <InChI Key_QSARr>
MOTZDAYCYVMXPC-UHFFFAOYSA-N

> <Salt_Solvent>


> <Salt_Solvent_ID>
0

> <MPID>
100732

> <Tr_1_Tst_0>
0

> <Ready_Biodeg>
1.0

$$$$
Row712
  Mrv171c012251911052D          

 15 16  0  0  0  0            999 V2000
    4.1330   -0.7170    0.0000 N   0  0  0  0  0  0  0  0  0  0  0  0
    4.1330   -1.5420    0.0000 C   0  0  0  0  0  0  0  0  0  0  0  0
    3.4185   -1.9545    0.0000 C   0  0  0  0  0  0  0  0  0  0  0  0
    3.4185   -2.7795    0.0000 C   0  0  0  0  0  0  0  0  0  0  0  0
    4.1330   -3.1920    0.0000 C   0  0  0  0  0  0  0  0  0  0  0  0
    4.8475   -2.7795    0.0000 C   0  0  0  0  0  0  0  0  0  0  0  0
    4.8475   -1.9545    0.0000 C   0  0  0  0  0  0  0  0  0  0  0  0
    3.4185   -0.3045    0.0000 C   0  0  0  0  0  0  0  0  0  0  0  0
    3.4185    0.5205    0.0000 C   0  0  0  0  0  0  0  0  0  0  0  0
    2.7041    0.9330    0.0000 C   0  0  0  0  0  0  0  0  0  0  0  0
    1.9896    0.5205    0.0000 C   0  0  0  0  0  0  0  0  0  0  0  0
    1.2751    0.9330    0.0000 N   0  0  0  0  0  0  0  0  0  0  0  0
    0.5607    0.5205    0.0000 O   0  0  0  0  0  0  0  0  0  0  0  0
    1.9896   -0.3045    0.0000 C   0  0  0  0  0  0  0  0  0  0  0  0
    2.7041   -0.7170    0.0000 C   0  0  0  0  0  0  0  0  0  0  0  0
  1  2  1  0  0  0  0
  3  2  1  0  0  0  0
  4  3  2  0  0  0  0
  5  4  1  0  0  0  0
  6  5  2  0  0  0  0
  7  6  1  0  0  0  0
  2  7  2  0  0  0  0
  1  8  1  0  0  0  0
  9  8  2  0  0  0  0
 10  9  1  0  0  0  0
 11 10  2  0  0  0  0
 11 12  1  0  0  0  0
 12 13  2  0  0  0  0
 14 11  1  0  0  0  0
 15 14  2  0  0  0  0
  8 15  1  0  0  0  0
M  END
> <ChemID>
100724

> <CAS>
156-10-5

> <Original_SMILES>
O=Nc1ccc(cc1)Nc1ccccc1

> <preferred_name>
4-Nitrosodiphenylamine

> <dsstox_substance_id>
DTXSID1021031

> <dsstox_compound_id>
DTXCID401031

> <qc_level>
DSSTox_Low

> <Canonical_QSARr>
O=NC1C=CC(=CC=1)NC1C=CC=CC=1

> <InChI_Code_QSARr>
InChI=1S/C12H10N2O/c15-14-12-8-6-11(7-9-12)13-10-4-2-1-3-5-10/h1-9,13H

> <InChI Key_QSARr>
OIJHFHYPXWSVPF-UHFFFAOYSA-N

> <Salt_Solvent>


> <Salt_Solvent_ID>
0

> <MPID>
100733

> <Tr_1_Tst_0>
1

> <Ready_Biodeg>
0.0

$$$$
Row713
  Mrv171c012251911052D          

 10 10  0  0  0  0            999 V2000
    2.5326   -1.7271    0.0000 O   0  0  0  0  0  0  0  0  0  0  0  0
    1.8182   -2.1396    0.0000 C   0  0  0  0  0  0  0  0  0  0  0  0
    1.8182   -2.9646    0.0000 C   0  0  0  0  0  0  0  0  0  0  0  0
    2.5326   -0.9021    0.0000 C   0  0  0  0  0  0  0  0  0  0  0  0
    3.2471   -0.4896    0.0000 C   0  0  0  0  0  0  0  0  0  0  0  0
    3.2471    0.3354    0.0000 C   0  0  0  0  0  0  0  0  0  0  0  0
    2.5326    0.7479    0.0000 C   0  0  0  0  0  0  0  0  0  0  0  0
    2.5326    1.5729    0.0000 N   0  0  0  0  0  0  0  0  0  0  0  0
    1.8182    0.3354    0.0000 C   0  0  0  0  0  0  0  0  0  0  0  0
    1.8182   -0.4896    0.0000 C   0  0  0  0  0  0  0  0  0  0  0  0
  1  2  1  0  0  0  0
  2  3  1  0  0  0  0
  1  4  1  0  0  0  0
  5  4  1  0  0  0  0
  6  5  2  0  0  0  0
  7  6  1  0  0  0  0
  7  8  1  0  0  0  0
  9  7  2  0  0  0  0
 10  9  1  0  0  0  0
  4 10  2  0  0  0  0
M  END
> <ChemID>
100725

> <CAS>
156-43-4

> <Original_SMILES>
CCOc1ccc(N)cc1

> <preferred_name>
4-Ethoxyaniline

> <dsstox_substance_id>
DTXSID0025864

> <dsstox_compound_id>
DTXCID505864

> <qc_level>
DSSTox_Low

> <Canonical_QSARr>
CCOC1C=CC(N)=CC=1

> <InChI_Code_QSARr>
InChI=1S/C8H11NO/c1-2-10-8-5-3-7(9)4-6-8/h3-6H,2,9H2,1H3

> <InChI Key_QSARr>
IMPPGHMHELILKG-UHFFFAOYSA-N

> <Salt_Solvent>


> <Salt_Solvent_ID>
0

> <MPID>
100734

> <Tr_1_Tst_0>
1

> <Ready_Biodeg>
0.0

$$$$
Row714
  Mrv171c012251911052D          

  4  3  0  0  0  0            999 V2000
    1.2375    0.7145    0.0000 Cl  0  0  0  0  0  0  0  0  0  0  0  0
    0.8250    0.0000    0.0000 C   0  0  0  0  0  0  0  0  0  0  0  0
    0.0000    0.0000    0.0000 C   0  0  0  0  0  0  0  0  0  0  0  0
   -0.4125   -0.7145    0.0000 Cl  0  0  0  0  0  0  0  0  0  0  0  0
  2  1  1  4  0  0  0
  2  3  2  0  0  0  0
  3  4  1  0  0  0  0
M  END
> <ChemID>
100726

> <CAS>
156-60-5|540-59-0

> <Original_SMILES>
Cl/C=C/Cl

> <preferred_name>
(E)-1,2-Dichloroethylene|(Z,E)-1,2-Dichloroethylene

> <dsstox_substance_id>
DTXSID7024031|DTXSID8024991

> <dsstox_compound_id>
DTXCID704031|DTXCID304991

> <qc_level>
DSSTox_Low

> <Canonical_QSARr>
ClC=CCl

> <InChI_Code_QSARr>
InChI=1S/C2H2Cl2/c3-1-2-4/h1-2H

> <InChI Key_QSARr>
KFUSEUYYWQURPO-UHFFFAOYSA-N

> <Salt_Solvent>


> <Salt_Solvent_ID>
0

> <MPID>
100735|100810

> <Tr_1_Tst_0>
1

> <Ready_Biodeg>
0.0

$$$$
Row715
  Mrv171c012251911052D          

 20 24  0  0  0  0            999 V2000
    1.3495   -1.8440    0.0000 C   0  0  0  0  0  0  0  0  0  0  0  0
    0.6351   -2.2565    0.0000 C   0  0  0  0  0  0  0  0  0  0  0  0
   -0.0794   -1.8440    0.0000 C   0  0  0  0  0  0  0  0  0  0  0  0
   -0.0794   -1.0190    0.0000 C   0  0  0  0  0  0  0  0  0  0  0  0
    0.6351   -0.6065    0.0000 C   0  0  0  0  0  0  0  0  0  0  0  0
    0.6351    0.2185    0.0000 C   0  0  0  0  0  0  0  0  0  0  0  0
    1.3495    0.6310    0.0000 C   0  0  0  0  0  0  0  0  0  0  0  0
    2.0640    0.2185    0.0000 C   0  0  0  0  0  0  0  0  0  0  0  0
    2.0640   -0.6065    0.0000 C   0  0  0  0  0  0  0  0  0  0  0  0
    2.7785   -1.0190    0.0000 C   0  0  0  0  0  0  0  0  0  0  0  0
    2.7785   -1.8440    0.0000 C   0  0  0  0  0  0  0  0  0  0  0  0
    3.4929   -2.2565    0.0000 C   0  0  0  0  0  0  0  0  0  0  0  0
    3.4929   -3.0815    0.0000 C   0  0  0  0  0  0  0  0  0  0  0  0
    2.7785   -3.4940    0.0000 C   0  0  0  0  0  0  0  0  0  0  0  0
    2.0640   -3.0815    0.0000 C   0  0  0  0  0  0  0  0  0  0  0  0
    2.0640   -2.2565    0.0000 C   0  0  0  0  0  0  0  0  0  0  0  0
    4.2074   -1.8440    0.0000 C   0  0  0  0  0  0  0  0  0  0  0  0
    4.2074   -1.0190    0.0000 C   0  0  0  0  0  0  0  0  0  0  0  0
    3.4929   -0.6065    0.0000 C   0  0  0  0  0  0  0  0  0  0  0  0
    1.3495   -1.0190    0.0000 C   0  0  0  0  0  0  0  0  0  0  0  0
  2  1  2  0  0  0  0
  3  2  1  0  0  0  0
  4  3  2  0  0  0  0
  5  4  1  0  0  0  0
  5  6  1  0  0  0  0
  6  7  2  0  0  0  0
  7  8  1  0  0  0  0
  8  9  2  0  0  0  0
  9 10  1  0  0  0  0
 11 10  1  0  0  0  0
 11 12  2  0  0  0  0
 12 13  1  0  0  0  0
 13 14  2  0  0  0  0
 14 15  1  0  0  0  0
 15 16  2  0  0  0  0
 16  1  1  0  0  0  0
 16 11  1  0  0  0  0
 17 12  1  0  0  0  0
 18 17  2  0  0  0  0
 19 18  1  0  0  0  0
 10 19  2  0  0  0  0
  9 20  1  0  0  0  0
  1 20  1  0  0  0  0
 20  5  2  0  0  0  0
M  END
> <ChemID>
100727

> <CAS>
198-55-0

> <Original_SMILES>
c1ccc2c3c(cccc31)c1cccc3cccc2c31

> <preferred_name>
Perylene

> <dsstox_substance_id>
DTXSID4047753

> <dsstox_compound_id>
DTXCID9027736

> <qc_level>
DSSTox_Low

> <Canonical_QSARr>
C1=CC=C2C3C(=CC=CC=31)C1=CC=CC3C=CC=C2C=31

> <InChI_Code_QSARr>
InChI=1S/C20H12/c1-5-13-6-2-11-17-18-12-4-8-14-7-3-10-16(20(14)18)15(9-1)19(13)17/h1-12H

> <InChI Key_QSARr>
CSHWQDPOILHKBI-UHFFFAOYSA-N

> <Salt_Solvent>


> <Salt_Solvent_ID>
0

> <MPID>
100736

> <Tr_1_Tst_0>
0

> <Ready_Biodeg>
0.0

$$$$
Row716
  Mrv171c012251911052D          

 16 19  0  0  0  0            999 V2000
    1.7518   -1.4991    0.0000 C   0  0  0  0  0  0  0  0  0  0  0  0
    2.0068   -2.2837    0.0000 C   0  0  0  0  0  0  0  0  0  0  0  0
    2.8318   -2.2837    0.0000 C   0  0  0  0  0  0  0  0  0  0  0  0
    3.0867   -1.4991    0.0000 C   0  0  0  0  0  0  0  0  0  0  0  0
    2.4193   -1.0142    0.0000 C   0  0  0  0  0  0  0  0  0  0  0  0
    2.3330   -0.1937    0.0000 C   0  0  0  0  0  0  0  0  0  0  0  0
    1.5794    0.1419    0.0000 C   0  0  0  0  0  0  0  0  0  0  0  0
    0.9119   -0.3430    0.0000 C   0  0  0  0  0  0  0  0  0  0  0  0
    0.9449   -1.3276    0.0000 C   0  0  0  0  0  0  0  0  0  0  0  0
    0.3928   -1.9407    0.0000 C   0  0  0  0  0  0  0  0  0  0  0  0
    0.6478   -2.7253    0.0000 C   0  0  0  0  0  0  0  0  0  0  0  0
    1.4547   -2.8968    0.0000 C   0  0  0  0  0  0  0  0  0  0  0  0
    3.8937   -1.3276    0.0000 C   0  0  0  0  0  0  0  0  0  0  0  0
    4.4457   -1.9407    0.0000 C   0  0  0  0  0  0  0  0  0  0  0  0
    4.1908   -2.7253    0.0000 C   0  0  0  0  0  0  0  0  0  0  0  0
    3.3838   -2.8968    0.0000 C   0  0  0  0  0  0  0  0  0  0  0  0
  2  1  1  0  0  0  0
  2  3  1  0  0  0  0
  4  3  2  0  0  0  0
  4  5  1  0  0  0  0
  5  1  2  0  0  0  0
  5  6  1  0  0  0  0
  6  7  2  0  0  0  0
  7  8  1  0  0  0  0
  8  9  2  0  0  0  0
  1  9  1  0  0  0  0
  9 10  1  0  0  0  0
 10 11  2  0  0  0  0
 11 12  1  0  0  0  0
 12  2  2  0  0  0  0
 13  4  1  0  0  0  0
 14 13  2  0  0  0  0
 15 14  1  0  0  0  0
 16 15  2  0  0  0  0
  3 16  1  0  0  0  0
M  END
> <ChemID>
100728

> <CAS>
206-44-0

> <Original_SMILES>
c1ccc2c3c(cccc31)-c1ccccc1-2

> <preferred_name>
Fluoranthene

> <dsstox_substance_id>
DTXSID3024104

> <dsstox_compound_id>
DTXCID204104

> <qc_level>
DSSTox_Low

> <Canonical_QSARr>
C1=CC=C2C3=C(C=CC=C31)C1C=CC=CC=12

> <InChI_Code_QSARr>
InChI=1S/C16H10/c1-2-8-13-12(7-1)14-9-3-5-11-6-4-10-15(13)16(11)14/h1-10H

> <InChI Key_QSARr>
GVEPBJHOBDJJJI-UHFFFAOYSA-N

> <Salt_Solvent>


> <Salt_Solvent_ID>
0

> <MPID>
100737

> <Tr_1_Tst_0>
1

> <Ready_Biodeg>
0.0

$$$$
Row717
  Mrv171c012251911052D          

 20 24  0  0  0  0            999 V2000
    2.2055   -1.1779    0.0000 C   0  0  0  0  0  0  0  0  0  0  0  0
    1.3841   -1.1007    0.0000 C   0  0  0  0  0  0  0  0  0  0  0  0
    0.9066   -1.7735    0.0000 C   0  0  0  0  0  0  0  0  0  0  0  0
    1.2504   -2.5234    0.0000 C   0  0  0  0  0  0  0  0  0  0  0  0
    2.0718   -2.6006    0.0000 C   0  0  0  0  0  0  0  0  0  0  0  0
    2.5493   -1.9278    0.0000 C   0  0  0  0  0  0  0  0  0  0  0  0
    3.3688   -1.8326    0.0000 C   0  0  0  0  0  0  0  0  0  0  0  0
    3.9880   -2.3778    0.0000 C   0  0  0  0  0  0  0  0  0  0  0  0
    4.7697   -2.1142    0.0000 C   0  0  0  0  0  0  0  0  0  0  0  0
    5.3889   -2.6595    0.0000 C   0  0  0  0  0  0  0  0  0  0  0  0
    6.1706   -2.3959    0.0000 C   0  0  0  0  0  0  0  0  0  0  0  0
    6.3332   -1.5871    0.0000 C   0  0  0  0  0  0  0  0  0  0  0  0
    5.7141   -1.0418    0.0000 C   0  0  0  0  0  0  0  0  0  0  0  0
    4.9323   -1.3054    0.0000 C   0  0  0  0  0  0  0  0  0  0  0  0
    4.3132   -0.7602    0.0000 C   0  0  0  0  0  0  0  0  0  0  0  0
    3.5314   -1.0237    0.0000 C   0  0  0  0  0  0  0  0  0  0  0  0
    2.8125   -0.6191    0.0000 C   0  0  0  0  0  0  0  0  0  0  0  0
    2.6320    0.1859    0.0000 C   0  0  0  0  0  0  0  0  0  0  0  0
    1.8447    0.4322    0.0000 C   0  0  0  0  0  0  0  0  0  0  0  0
    1.2377   -0.1266    0.0000 C   0  0  0  0  0  0  0  0  0  0  0  0
  2  1  1  0  0  0  0
  2  3  2  0  0  0  0
  3  4  1  0  0  0  0
  4  5  2  0  0  0  0
  5  6  1  0  0  0  0
  6  1  2  0  0  0  0
  6  7  1  0  0  0  0
  8  7  1  0  0  0  0
  9  8  2  0  0  0  0
  9 10  1  0  0  0  0
 10 11  2  0  0  0  0
 11 12  1  0  0  0  0
 12 13  2  0  0  0  0
 13 14  1  0  0  0  0
 14  9  1  0  0  0  0
 15 14  2  0  0  0  0
 16 15  1  0  0  0  0
  7 16  2  0  0  0  0
 16 17  1  0  0  0  0
  1 17  1  0  0  0  0
 17 18  2  0  0  0  0
 18 19  1  0  0  0  0
 19 20  2  0  0  0  0
 20  2  1  0  0  0  0
M  END
> <ChemID>
100729

> <CAS>
207-08-9

> <Original_SMILES>
c1c2-c3cccc4cccc(c43)-c2cc2ccccc21

> <preferred_name>
Benzo(k)fluoranthene

> <dsstox_substance_id>
DTXSID0023909

> <dsstox_compound_id>
DTXCID703909

> <qc_level>
DSSTox_Low

> <Canonical_QSARr>
C1C2C3C=CC=C4C=CC=C(C4=3)C=2C=C2C=CC=CC2=1

> <InChI_Code_QSARr>
InChI=1S/C20H12/c1-2-6-15-12-19-17-10-4-8-13-7-3-9-16(20(13)17)18(19)11-14(15)5-1/h1-12H

> <InChI Key_QSARr>
HAXBIWFMXWRORI-UHFFFAOYSA-N

> <Salt_Solvent>


> <Salt_Solvent_ID>
0

> <MPID>
100738

> <Tr_1_Tst_0>
1

> <Ready_Biodeg>
0.0

$$$$
Row718
  Mrv171c012251911052D          

 12 14  0  0  0  0            999 V2000
    1.0219   -0.0469    0.0000 C   0  0  0  0  0  0  0  0  0  0  0  0
    0.7670   -0.8315    0.0000 C   0  0  0  0  0  0  0  0  0  0  0  0
    1.4344   -1.3165    0.0000 C   0  0  0  0  0  0  0  0  0  0  0  0
    1.3482   -2.1369    0.0000 C   0  0  0  0  0  0  0  0  0  0  0  0
    0.5945   -2.4725    0.0000 C   0  0  0  0  0  0  0  0  0  0  0  0
   -0.0729   -1.9876    0.0000 C   0  0  0  0  0  0  0  0  0  0  0  0
    0.0133   -1.1671    0.0000 C   0  0  0  0  0  0  0  0  0  0  0  0
    2.2743   -2.4725    0.0000 C   0  0  0  0  0  0  0  0  0  0  0  0
    2.9418   -1.9876    0.0000 C   0  0  0  0  0  0  0  0  0  0  0  0
    2.8555   -1.1671    0.0000 C   0  0  0  0  0  0  0  0  0  0  0  0
    2.1019   -0.8315    0.0000 C   0  0  0  0  0  0  0  0  0  0  0  0
    1.8469   -0.0469    0.0000 C   0  0  0  0  0  0  0  0  0  0  0  0
  2  1  1  0  0  0  0
  2  3  2  0  0  0  0
  3  4  1  0  0  0  0
  4  5  2  0  0  0  0
  5  6  1  0  0  0  0
  6  7  2  0  0  0  0
  7  2  1  0  0  0  0
  4  8  1  0  0  0  0
  8  9  2  0  0  0  0
  9 10  1  0  0  0  0
 10 11  2  0  0  0  0
 11  3  1  0  0  0  0
 12 11  1  0  0  0  0
  1 12  2  0  0  0  0
M  END
> <ChemID>
100730

> <CAS>
208-96-8

> <Original_SMILES>
c1ccc2C=Cc3cccc1c32

> <preferred_name>
Acenaphthylene

> <dsstox_substance_id>
DTXSID3023845

> <dsstox_compound_id>
DTXCID103845

> <qc_level>
DSSTox_Low

> <Canonical_QSARr>
C1=CC=C2C=CC=C3C=CC1=C32

> <InChI_Code_QSARr>
InChI=1S/C12H8/c1-3-9-4-2-6-11-8-7-10(5-1)12(9)11/h1-8H

> <InChI Key_QSARr>
HXGDTGSAIMULJN-UHFFFAOYSA-N

> <Salt_Solvent>


> <Salt_Solvent_ID>
0

> <MPID>
100739

> <Tr_1_Tst_0>
1

> <Ready_Biodeg>
1.0

$$$$
Row719
  Mrv171c012251911052D          

 10 11  0  0  0  0            999 V2000
    0.5363   -1.1136    0.0000 C   0  0  0  0  0  0  0  0  0  0  0  0
    1.1813   -1.6280    0.0000 C   0  0  0  0  0  0  0  0  0  0  0  0
    1.9856   -1.4444    0.0000 C   0  0  0  0  0  0  0  0  0  0  0  0
    2.3436   -0.7011    0.0000 C   0  0  0  0  0  0  0  0  0  0  0  0
    1.9856    0.0422    0.0000 C   0  0  0  0  0  0  0  0  0  0  0  0
    1.1813    0.2258    0.0000 C   0  0  0  0  0  0  0  0  0  0  0  0
    0.5363   -0.2886    0.0000 C   0  0  0  0  0  0  0  0  0  0  0  0
   -0.2483   -0.0336    0.0000 C   0  0  0  0  0  0  0  0  0  0  0  0
   -0.7333   -0.7011    0.0000 C   0  0  0  0  0  0  0  0  0  0  0  0
   -0.2483   -1.3685    0.0000 C   0  0  0  0  0  0  0  0  0  0  0  0
  2  1  1  0  0  0  0
  3  2  2  0  0  0  0
  4  3  1  0  0  0  0
  5  4  2  0  0  0  0
  6  5  1  0  0  0  0
  7  6  2  0  0  0  0
  7  1  1  0  0  0  0
  8  7  1  0  0  0  0
  9  8  2  0  0  0  0
 10  9  1  0  0  0  0
  1 10  2  0  0  0  0
M  END
> <ChemID>
100731

> <CAS>
275-51-4

> <Original_SMILES>
c1ccc2cccccc21

> <preferred_name>
Azulene

> <dsstox_substance_id>
DTXSID2059770

> <dsstox_compound_id>
DTXCID7037686

> <qc_level>
Public_High

> <Canonical_QSARr>
C1=CC=C2C=CC=CC=C21

> <InChI_Code_QSARr>
InChI=1S/C10H8/c1-2-5-9-7-4-8-10(9)6-3-1/h1-8H

> <InChI Key_QSARr>
CUFNKYGDVFVPHO-UHFFFAOYSA-N

> <Salt_Solvent>


> <Salt_Solvent_ID>
0

> <MPID>
100740

> <Tr_1_Tst_0>
0

> <Ready_Biodeg>
0.0

$$$$
Row720
  Mrv171c012251911052D          

  6  6  0  0  0  0            999 V2000
    1.4158   -0.4251    0.0000 N   0  0  0  0  0  0  0  0  0  0  0  0
    0.7013   -0.0126    0.0000 C   0  0  0  0  0  0  0  0  0  0  0  0
   -0.0131   -0.4251    0.0000 C   0  0  0  0  0  0  0  0  0  0  0  0
   -0.0131   -1.2501    0.0000 C   0  0  0  0  0  0  0  0  0  0  0  0
    0.7013   -1.6626    0.0000 N   0  0  0  0  0  0  0  0  0  0  0  0
    1.4158   -1.2501    0.0000 C   0  0  0  0  0  0  0  0  0  0  0  0
  2  1  1  0  0  0  0
  3  2  2  0  0  0  0
  4  3  1  0  0  0  0
  5  4  2  0  0  0  0
  6  5  1  0  0  0  0
  1  6  2  0  0  0  0
M  END
> <ChemID>
100732

> <CAS>
289-95-2

> <Original_SMILES>
c1[n]ccc[n]1

> <preferred_name>
Pyrimidine

> <dsstox_substance_id>
DTXSID1051228

> <dsstox_compound_id>
DTXCID4029850

> <qc_level>
DSSTox_Low

> <Canonical_QSARr>
C1N=CC=CN=1

> <InChI_Code_QSARr>
InChI=1S/C4H4N2/c1-2-5-4-6-3-1/h1-4H

> <InChI Key_QSARr>
CZPWVGJYEJSRLH-UHFFFAOYSA-N

> <Salt_Solvent>


> <Salt_Solvent_ID>
0

> <MPID>
100741

> <Tr_1_Tst_0>
1

> <Ready_Biodeg>
0.0

$$$$
Row721
  Mrv171c012251911052D          

  6  6  0  0  0  0            999 V2000
    1.4215   -0.4027    0.0000 N   0  0  0  0  0  0  0  0  0  0  0  0
    0.7071    0.0098    0.0000 C   0  0  0  0  0  0  0  0  0  0  0  0
   -0.0074   -0.4027    0.0000 C   0  0  0  0  0  0  0  0  0  0  0  0
   -0.0074   -1.2277    0.0000 N   0  0  0  0  0  0  0  0  0  0  0  0
    0.7071   -1.6402    0.0000 C   0  0  0  0  0  0  0  0  0  0  0  0
    1.4215   -1.2277    0.0000 C   0  0  0  0  0  0  0  0  0  0  0  0
  2  1  1  0  0  0  0
  3  2  2  0  0  0  0
  4  3  1  0  0  0  0
  5  4  2  0  0  0  0
  6  5  1  0  0  0  0
  1  6  2  0  0  0  0
M  END
> <ChemID>
100733

> <CAS>
290-37-9

> <Original_SMILES>
c1c[n]cc[n]1

> <preferred_name>
Pyrazine

> <dsstox_substance_id>
DTXSID8049410

> <dsstox_compound_id>
DTXCID7029370

> <qc_level>
DSSTox_Low

> <Canonical_QSARr>
C1=CN=CC=N1

> <InChI_Code_QSARr>
InChI=1S/C4H4N2/c1-2-6-4-3-5-1/h1-4H

> <InChI Key_QSARr>
KYQCOXFCLRTKLS-UHFFFAOYSA-N

> <Salt_Solvent>


> <Salt_Solvent_ID>
0

> <MPID>
100742

> <Tr_1_Tst_0>
1

> <Ready_Biodeg>
1.0

$$$$
Row722
  Mrv171c012251911052D          

 12 12  0  0  0  0            999 V2000
    2.1416   -0.4108    0.0000 C   0  0  0  0  0  0  0  0  0  0  0  0
    1.4271   -0.8233    0.0000 C   0  0  0  0  0  0  0  0  0  0  0  0
    0.7127   -0.4108    0.0000 C   0  0  0  0  0  0  0  0  0  0  0  0
   -0.0018   -0.8233    0.0000 C   0  0  0  0  0  0  0  0  0  0  0  0
   -0.0018   -1.6483    0.0000 C   0  0  0  0  0  0  0  0  0  0  0  0
    0.7127   -2.0608    0.0000 C   0  0  0  0  0  0  0  0  0  0  0  0
    0.7127   -2.8858    0.0000 C   0  0  0  0  0  0  0  0  0  0  0  0
    1.4271   -3.2983    0.0000 C   0  0  0  0  0  0  0  0  0  0  0  0
    2.1416   -2.8858    0.0000 C   0  0  0  0  0  0  0  0  0  0  0  0
    2.1416   -2.0608    0.0000 C   0  0  0  0  0  0  0  0  0  0  0  0
    2.8561   -1.6483    0.0000 C   0  0  0  0  0  0  0  0  0  0  0  0
    2.8561   -0.8233    0.0000 C   0  0  0  0  0  0  0  0  0  0  0  0
  2  1  1  0  0  0  0
  3  2  1  0  0  0  0
  4  3  1  0  0  0  0
  5  4  1  0  0  0  0
  6  5  1  0  0  0  0
  7  6  1  0  0  0  0
  8  7  1  0  0  0  0
  9  8  1  0  0  0  0
 10  9  1  0  0  0  0
 11 10  1  0  0  0  0
 12 11  1  0  0  0  0
  1 12  1  0  0  0  0
M  END
> <ChemID>
100734

> <CAS>
294-62-2

> <Original_SMILES>
C1CCCCCCCCCCC1

> <preferred_name>
Cyclododecane

> <dsstox_substance_id>
DTXSID9021552

> <dsstox_compound_id>
DTXCID401552

> <qc_level>
DSSTox_Low

> <Canonical_QSARr>
C1CCCCCCCCCCC1

> <InChI_Code_QSARr>
InChI=1S/C12H24/c1-2-4-6-8-10-12-11-9-7-5-3-1/h1-12H2

> <InChI Key_QSARr>
DDTBPAQBQHZRDW-UHFFFAOYSA-N

> <Salt_Solvent>


> <Salt_Solvent_ID>
0

> <MPID>
100743

> <Tr_1_Tst_0>
1

> <Ready_Biodeg>
0.0

$$$$
Row723
  Mrv171c012251911052D          

  9  8  0  0  0  0            999 V2000
    1.5346   -1.0320    0.0000 P   0  0  0  0  0  0  0  0  0  0  0  0
    1.5346   -0.2070    0.0000 S   0  0  0  0  0  0  0  0  0  0  0  0
    1.5346   -1.8570    0.0000 S   0  0  0  0  0  0  0  0  0  0  0  0
    2.3596   -1.0320    0.0000 O   0  0  0  0  0  0  0  0  0  0  0  0
    2.7721   -1.7465    0.0000 C   0  0  0  0  0  0  0  0  0  0  0  0
    3.5971   -1.7465    0.0000 C   0  0  0  0  0  0  0  0  0  0  0  0
    0.7096   -1.0320    0.0000 O   0  0  0  0  0  0  0  0  0  0  0  0
    0.2971   -0.3176    0.0000 C   0  0  0  0  0  0  0  0  0  0  0  0
   -0.5279   -0.3176    0.0000 C   0  0  0  0  0  0  0  0  0  0  0  0
  1  2  2  0  0  0  0
  1  3  1  0  0  0  0
  1  4  1  0  0  0  0
  4  5  1  0  0  0  0
  5  6  1  0  0  0  0
  1  7  1  0  0  0  0
  7  8  1  0  0  0  0
  8  9  1  0  0  0  0
M  END
> <ChemID>
100735

> <CAS>
298-06-6

> <Original_SMILES>
CCOP(S)(=S)OCC

> <preferred_name>
O,O-Diethyl dithiophosphate

> <dsstox_substance_id>
DTXSID6027133

> <dsstox_compound_id>
DTXCID007133

> <qc_level>
DSSTox_Low

> <Canonical_QSARr>
CCOP(S)(=S)OCC

> <InChI_Code_QSARr>
InChI=1S/C4H11O2PS2/c1-3-5-7(8,9)6-4-2/h3-4H2,1-2H3,(H,8,9)

> <InChI Key_QSARr>
IRDLUHRVLVEUHA-UHFFFAOYSA-N

> <Salt_Solvent>


> <Salt_Solvent_ID>
0

> <MPID>
100744

> <Tr_1_Tst_0>
0

> <Ready_Biodeg>
0.0

$$$$
Row724
  Mrv171c012251911052D          

 21 20  0  0  0  0            999 V2000
    3.1009   -2.2688    0.0000 P   0  0  0  0  0  0  0  0  0  0  0  0
    2.3865   -1.8563    0.0000 O   0  0  0  0  0  0  0  0  0  0  0  0
    2.6884   -2.9833    0.0000 O   0  0  0  0  0  0  0  0  0  0  0  0
    1.8634   -2.9833    0.0000 C   0  0  0  0  0  0  0  0  0  0  0  0
    1.4509   -3.6977    0.0000 C   0  0  0  0  0  0  0  0  0  0  0  0
    1.8634   -4.4122    0.0000 C   0  0  0  0  0  0  0  0  0  0  0  0
    1.4509   -5.1267    0.0000 C   0  0  0  0  0  0  0  0  0  0  0  0
    0.6259   -3.6977    0.0000 C   0  0  0  0  0  0  0  0  0  0  0  0
    0.2134   -4.4122    0.0000 C   0  0  0  0  0  0  0  0  0  0  0  0
   -0.6116   -4.4122    0.0000 C   0  0  0  0  0  0  0  0  0  0  0  0
   -1.0241   -5.1267    0.0000 C   0  0  0  0  0  0  0  0  0  0  0  0
    3.5134   -1.5543    0.0000 O   0  0  0  0  0  0  0  0  0  0  0  0
    4.3384   -1.5543    0.0000 C   0  0  0  0  0  0  0  0  0  0  0  0
    4.7509   -0.8398    0.0000 C   0  0  0  0  0  0  0  0  0  0  0  0
    4.3384   -0.1254    0.0000 C   0  0  0  0  0  0  0  0  0  0  0  0
    4.7509    0.5891    0.0000 C   0  0  0  0  0  0  0  0  0  0  0  0
    5.5759   -0.8398    0.0000 C   0  0  0  0  0  0  0  0  0  0  0  0
    5.9884   -0.1254    0.0000 C   0  0  0  0  0  0  0  0  0  0  0  0
    6.8134   -0.1254    0.0000 C   0  0  0  0  0  0  0  0  0  0  0  0
    7.2259    0.5891    0.0000 C   0  0  0  0  0  0  0  0  0  0  0  0
    3.8154   -2.6813    0.0000 O   0  0  0  0  0  0  0  0  0  0  0  0
  1  2  1  0  0  0  0
  1  3  1  0  0  0  0
  3  4  1  0  0  0  0
  4  5  1  0  0  0  0
  5  6  1  0  0  0  0
  6  7  1  0  0  0  0
  5  8  1  0  0  0  0
  8  9  1  0  0  0  0
  9 10  1  0  0  0  0
 10 11  1  0  0  0  0
  1 12  1  0  0  0  0
 12 13  1  0  0  0  0
 13 14  1  0  0  0  0
 14 15  1  0  0  0  0
 15 16  1  0  0  0  0
 14 17  1  0  0  0  0
 17 18  1  0  0  0  0
 18 19  1  0  0  0  0
 19 20  1  0  0  0  0
  1 21  2  0  0  0  0
M  END
> <ChemID>
100736

> <CAS>
298-07-7

> <Original_SMILES>
CCCCC(COP(O)(=O)OCC(CCCC)CC)CC

> <preferred_name>
Bis(2-ethylhexyl) phosphate

> <dsstox_substance_id>
DTXSID1027134

> <dsstox_compound_id>
DTXCID407134

> <qc_level>
DSSTox_Low

> <Canonical_QSARr>
CCCCC(COP(O)(=O)OCC(CCCC)CC)CC

> <InChI_Code_QSARr>
InChI=1S/C16H35O4P/c1-5-9-11-15(7-3)13-19-21(17,18)20-14-16(8-4)12-10-6-2/h15-16H,5-14H2,1-4H3,(H,17,18)

> <InChI Key_QSARr>
SEGLCEQVOFDUPX-UHFFFAOYSA-N

> <Salt_Solvent>


> <Salt_Solvent_ID>
0

> <MPID>
100745

> <Tr_1_Tst_0>
1

> <Ready_Biodeg>
0.0

$$$$
Row725
  Mrv171c012251911052D          

 40 39  0  0  0  0            999 V2000
    5.6639   -4.2806    0.0000 C   0  0  0  0  0  0  0  0  0  0  0  0
    6.0764   -4.9950    0.0000 F   0  0  0  0  0  0  0  0  0  0  0  0
    5.2514   -3.5661    0.0000 F   0  0  0  0  0  0  0  0  0  0  0  0
    4.9494   -4.6931    0.0000 N   0  0  0  0  0  0  0  0  0  0  0  0
    4.9494   -5.5181    0.0000 C   0  0  0  0  0  0  0  0  0  0  0  0
    5.7744   -5.5181    0.0000 F   0  0  0  0  0  0  0  0  0  0  0  0
    4.1244   -5.5181    0.0000 F   0  0  0  0  0  0  0  0  0  0  0  0
    4.9494   -6.3431    0.0000 C   0  0  0  0  0  0  0  0  0  0  0  0
    5.7744   -6.3431    0.0000 F   0  0  0  0  0  0  0  0  0  0  0  0
    4.1244   -6.3431    0.0000 F   0  0  0  0  0  0  0  0  0  0  0  0
    4.9494   -7.1681    0.0000 C   0  0  0  0  0  0  0  0  0  0  0  0
    5.7744   -7.1681    0.0000 F   0  0  0  0  0  0  0  0  0  0  0  0
    4.1244   -7.1681    0.0000 F   0  0  0  0  0  0  0  0  0  0  0  0
    4.9494   -7.9931    0.0000 C   0  0  0  0  0  0  0  0  0  0  0  0
    4.9494   -8.8181    0.0000 F   0  0  0  0  0  0  0  0  0  0  0  0
    5.7744   -7.9931    0.0000 F   0  0  0  0  0  0  0  0  0  0  0  0
    4.1244   -7.9931    0.0000 F   0  0  0  0  0  0  0  0  0  0  0  0
    4.2349   -4.2806    0.0000 C   0  0  0  0  0  0  0  0  0  0  0  0
    4.6474   -3.5661    0.0000 F   0  0  0  0  0  0  0  0  0  0  0  0
    3.8224   -4.9950    0.0000 F   0  0  0  0  0  0  0  0  0  0  0  0
    3.5205   -3.8681    0.0000 C   0  0  0  0  0  0  0  0  0  0  0  0
    3.9330   -3.1536    0.0000 F   0  0  0  0  0  0  0  0  0  0  0  0
    3.1080   -4.5825    0.0000 F   0  0  0  0  0  0  0  0  0  0  0  0
    2.8060   -3.4556    0.0000 C   0  0  0  0  0  0  0  0  0  0  0  0
    3.2185   -2.7411    0.0000 F   0  0  0  0  0  0  0  0  0  0  0  0
    2.3935   -4.1700    0.0000 F   0  0  0  0  0  0  0  0  0  0  0  0
    2.0915   -3.0431    0.0000 C   0  0  0  0  0  0  0  0  0  0  0  0
    1.3771   -2.6306    0.0000 F   0  0  0  0  0  0  0  0  0  0  0  0
    2.5040   -2.3286    0.0000 F   0  0  0  0  0  0  0  0  0  0  0  0
    1.6790   -3.7575    0.0000 F   0  0  0  0  0  0  0  0  0  0  0  0
    6.3784   -3.8681    0.0000 C   0  0  0  0  0  0  0  0  0  0  0  0
    5.9659   -3.1536    0.0000 F   0  0  0  0  0  0  0  0  0  0  0  0
    6.7909   -4.5825    0.0000 F   0  0  0  0  0  0  0  0  0  0  0  0
    7.0928   -3.4556    0.0000 C   0  0  0  0  0  0  0  0  0  0  0  0
    7.5053   -4.1700    0.0000 F   0  0  0  0  0  0  0  0  0  0  0  0
    6.6803   -2.7411    0.0000 F   0  0  0  0  0  0  0  0  0  0  0  0
    7.8073   -3.0431    0.0000 C   0  0  0  0  0  0  0  0  0  0  0  0
    8.2198   -3.7575    0.0000 F   0  0  0  0  0  0  0  0  0  0  0  0
    7.3948   -2.3286    0.0000 F   0  0  0  0  0  0  0  0  0  0  0  0
    8.5218   -2.6306    0.0000 F   0  0  0  0  0  0  0  0  0  0  0  0
  1  2  1  0  0  0  0
  1  3  1  0  0  0  0
  1  4  1  0  0  0  0
  4  5  1  0  0  0  0
  5  6  1  0  0  0  0
  5  7  1  0  0  0  0
  5  8  1  0  0  0  0
  8  9  1  0  0  0  0
  8 10  1  0  0  0  0
  8 11  1  0  0  0  0
 11 12  1  0  0  0  0
 11 13  1  0  0  0  0
 11 14  1  0  0  0  0
 14 15  1  0  0  0  0
 14 16  1  0  0  0  0
 14 17  1  0  0  0  0
  4 18  1  0  0  0  0
 18 19  1  0  0  0  0
 18 20  1  0  0  0  0
 18 21  1  0  0  0  0
 21 22  1  0  0  0  0
 21 23  1  0  0  0  0
 21 24  1  0  0  0  0
 24 25  1  0  0  0  0
 24 26  1  0  0  0  0
 24 27  1  0  0  0  0
 27 28  1  0  0  0  0
 27 29  1  0  0  0  0
 27 30  1  0  0  0  0
  1 31  1  0  0  0  0
 31 32  1  0  0  0  0
 31 33  1  0  0  0  0
 31 34  1  0  0  0  0
 34 35  1  0  0  0  0
 34 36  1  0  0  0  0
 34 37  1  0  0  0  0
 37 38  1  0  0  0  0
 37 39  1  0  0  0  0
 37 40  1  0  0  0  0
M  END
> <ChemID>
100738

> <CAS>
311-89-7

> <Original_SMILES>
FC(F)(F)C(F)(F)C(F)(F)C(F)(F)N(C(F)(F)C(F)(F)C(F)(F)C(F)(F)F)C(F)(F)C(F)(F)C(F)(F)C(F)(F)F

> <preferred_name>
Perfluorotributylamine

> <dsstox_substance_id>
DTXSID0027141

> <dsstox_compound_id>
DTXCID507141

> <qc_level>
DSSTox_Low

> <Canonical_QSARr>
FC(F)(F)C(F)(F)C(F)(F)C(F)(F)N(C(F)(F)C(F)(F)C(F)(F)C(F)(F)F)C(F)(F)C(F)(F)C(F)(F)C(F)(F)F

> <InChI_Code_QSARr>
InChI=1S/C12F27N/c13-1(14,7(25,26)27)4(19,20)10(34,35)40(11(36,37)5(21,22)2(15,16)8(28,29)30)12(38,39)6(23,24)3(17,18)9(31,32)33

> <InChI Key_QSARr>
RVZRBWKZFJCCIB-UHFFFAOYSA-N

> <Salt_Solvent>


> <Salt_Solvent_ID>
0

> <MPID>
100746

> <Tr_1_Tst_0>
1

> <Ready_Biodeg>
0.0

$$$$
Row726
  Mrv171c012251911052D          

 12 12  0  0  0  0            999 V2000
    2.1593   -1.2706    0.0000 C   0  0  0  0  0  0  0  0  0  0  0  0
    2.8738   -0.8581    0.0000 Cl  0  0  0  0  0  0  0  0  0  0  0  0
    1.4448   -0.8581    0.0000 C   0  0  0  0  0  0  0  0  0  0  0  0
    1.4448   -0.0331    0.0000 Cl  0  0  0  0  0  0  0  0  0  0  0  0
    0.7303   -1.2706    0.0000 C   0  0  0  0  0  0  0  0  0  0  0  0
    0.0159   -0.8581    0.0000 Cl  0  0  0  0  0  0  0  0  0  0  0  0
    0.7303   -2.0956    0.0000 C   0  0  0  0  0  0  0  0  0  0  0  0
    0.0159   -2.5081    0.0000 Cl  0  0  0  0  0  0  0  0  0  0  0  0
    1.4448   -2.5081    0.0000 C   0  0  0  0  0  0  0  0  0  0  0  0
    1.4448   -3.3331    0.0000 Cl  0  0  0  0  0  0  0  0  0  0  0  0
    2.1593   -2.0956    0.0000 C   0  0  0  0  0  0  0  0  0  0  0  0
    2.8738   -2.5081    0.0000 Cl  0  0  0  0  0  0  0  0  0  0  0  0
  1  2  1  0  0  0  0
  3  1  1  0  0  0  0
  3  4  1  0  0  0  0
  5  3  1  0  0  0  0
  5  6  1  0  0  0  0
  7  5  1  0  0  0  0
  7  8  1  0  0  0  0
  9  7  1  0  0  0  0
  9 10  1  0  0  0  0
 11  9  1  0  0  0  0
  1 11  1  0  0  0  0
 11 12  1  0  0  0  0
M  END
> <ChemID>
100739

> <CAS>
319-86-8

> <Original_SMILES>
Cl[C@@H]1[C@H](Cl)[C@@H](Cl)[C@H](Cl)[C@@H](Cl)[C@@H]1Cl

> <preferred_name>
delta-Hexachlorocyclohexane

> <dsstox_substance_id>
DTXSID5024134

> <dsstox_compound_id>
DTXCID60196534

> <qc_level>
DSSTox_High

> <Canonical_QSARr>
ClC1C(Cl)C(Cl)C(Cl)C(Cl)C1Cl

> <InChI_Code_QSARr>
InChI=1S/C6H6Cl6/c7-1-2(8)4(10)6(12)5(11)3(1)9/h1-6H

> <InChI Key_QSARr>
JLYXXMFPNIAWKQ-UHFFFAOYSA-N

> <Salt_Solvent>


> <Salt_Solvent_ID>
0

> <MPID>
100747

> <Tr_1_Tst_0>
1

> <Ready_Biodeg>
0.0

$$$$
Row727
  Mrv171c012251911052D          

 14 14  0  0  0  0            999 V2000
    3.7744   -2.5334    0.0000 Cl  0  0  0  0  0  0  0  0  0  0  0  0
    3.0599   -2.1209    0.0000 C   0  0  0  0  0  0  0  0  0  0  0  0
    3.0599   -1.2959    0.0000 C   0  0  0  0  0  0  0  0  0  0  0  0
    2.3454   -0.8834    0.0000 C   0  0  0  0  0  0  0  0  0  0  0  0
    2.3454   -0.0584    0.0000 N   0  0  0  0  0  0  0  0  0  0  0  0
    1.6310    0.3541    0.0000 C   0  0  0  0  0  0  0  0  0  0  0  0
    1.6310    1.1791    0.0000 N   0  0  0  0  0  0  0  0  0  0  0  0
    0.9165    1.5916    0.0000 C   0  0  0  0  0  0  0  0  0  0  0  0
    2.3454    1.5916    0.0000 C   0  0  0  0  0  0  0  0  0  0  0  0
    0.9165   -0.0584    0.0000 O   0  0  0  0  0  0  0  0  0  0  0  0
    1.6310   -1.2959    0.0000 C   0  0  0  0  0  0  0  0  0  0  0  0
    1.6310   -2.1209    0.0000 C   0  0  0  0  0  0  0  0  0  0  0  0
    2.3454   -2.5334    0.0000 C   0  0  0  0  0  0  0  0  0  0  0  0
    2.3454   -3.3584    0.0000 Cl  0  0  0  0  0  0  0  0  0  0  0  0
  1  2  1  0  0  0  0
  3  2  1  0  0  0  0
  4  3  2  0  0  0  0
  4  5  1  0  0  0  0
  5  6  1  0  0  0  0
  6  7  1  0  0  0  0
  7  8  1  0  0  0  0
  7  9  1  0  0  0  0
  6 10  2  0  0  0  0
 11  4  1  0  0  0  0
 12 11  2  0  0  0  0
 13 12  1  0  0  0  0
  2 13  2  0  0  0  0
 13 14  1  0  0  0  0
M  END
> <ChemID>
100740

> <CAS>
330-54-1

> <Original_SMILES>
CN(C)C(=O)Nc1cc(Cl)c(Cl)cc1

> <preferred_name>
Diuron

> <dsstox_substance_id>
DTXSID0020446

> <dsstox_compound_id>
DTXCID00446

> <qc_level>
DSSTox_Low

> <Canonical_QSARr>
CN(C)C(=O)NC1=CC(Cl)=C(Cl)C=C1

> <InChI_Code_QSARr>
InChI=1S/C9H10Cl2N2O/c1-13(2)9(14)12-6-3-4-7(10)8(11)5-6/h3-5H,1-2H3,(H,12,14)

> <InChI Key_QSARr>
XMTQQYYKAHVGBJ-UHFFFAOYSA-N

> <Salt_Solvent>


> <Salt_Solvent_ID>
0

> <MPID>
100748

> <Tr_1_Tst_0>
0

> <Ready_Biodeg>
0.0

$$$$
Row728
  Mrv171c012251911052D          

 15 15  0  0  0  0            999 V2000
    1.5026   -1.2918    0.0000 C   0  0  0  0  0  0  0  0  0  0  0  0
    1.5026   -0.4668    0.0000 O   0  0  0  0  0  0  0  0  0  0  0  0
    0.7881   -1.7043    0.0000 N   0  0  0  0  0  0  0  0  0  0  0  0
    0.7881   -2.5293    0.0000 C   0  0  0  0  0  0  0  0  0  0  0  0
    0.0737   -1.2918    0.0000 O   0  0  0  0  0  0  0  0  0  0  0  0
   -0.6408   -1.7043    0.0000 C   0  0  0  0  0  0  0  0  0  0  0  0
    2.2171   -1.7043    0.0000 N   0  0  0  0  0  0  0  0  0  0  0  0
    2.9315   -1.2918    0.0000 C   0  0  0  0  0  0  0  0  0  0  0  0
    3.6460   -1.7043    0.0000 C   0  0  0  0  0  0  0  0  0  0  0  0
    4.3605   -1.2918    0.0000 C   0  0  0  0  0  0  0  0  0  0  0  0
    4.3605   -0.4668    0.0000 C   0  0  0  0  0  0  0  0  0  0  0  0
    5.0750   -0.0543    0.0000 Cl  0  0  0  0  0  0  0  0  0  0  0  0
    3.6460   -0.0543    0.0000 C   0  0  0  0  0  0  0  0  0  0  0  0
    3.6460    0.7707    0.0000 Cl  0  0  0  0  0  0  0  0  0  0  0  0
    2.9315   -0.4668    0.0000 C   0  0  0  0  0  0  0  0  0  0  0  0
  1  2  2  0  0  0  0
  1  3  1  0  0  0  0
  3  4  1  0  0  0  0
  3  5  1  0  0  0  0
  5  6  1  0  0  0  0
  1  7  1  0  0  0  0
  7  8  1  0  0  0  0
  9  8  2  0  0  0  0
 10  9  1  0  0  0  0
 11 10  2  0  0  0  0
 11 12  1  0  0  0  0
 13 11  1  0  0  0  0
 13 14  1  0  0  0  0
 15 13  2  0  0  0  0
  8 15  1  0  0  0  0
M  END
> <ChemID>
100741

> <CAS>
330-55-2

> <Original_SMILES>
CON(C)C(=O)Nc1cc(Cl)c(Cl)cc1

> <preferred_name>
Linuron

> <dsstox_substance_id>
DTXSID2024163

> <dsstox_compound_id>
DTXCID604163

> <qc_level>
DSSTox_Low

> <Canonical_QSARr>
CON(C)C(=O)NC1C=C(Cl)C(Cl)=CC=1

> <InChI_Code_QSARr>
InChI=1S/C9H10Cl2N2O2/c1-13(15-2)9(14)12-6-3-4-7(10)8(11)5-6/h3-5H,1-2H3,(H,12,14)

> <InChI Key_QSARr>
XKJMBINCVNINCA-UHFFFAOYSA-N

> <Salt_Solvent>


> <Salt_Solvent_ID>
0

> <MPID>
100749

> <Tr_1_Tst_0>
1

> <Ready_Biodeg>
0.0

$$$$
Row729
  Mrv171c012251911052D          

 19 19  0  0  0  0            999 V2000
    4.2721   -2.8811    0.0000 S   0  0  0  0  0  0  0  0  0  0  0  0
    3.8596   -2.1666    0.0000 P   0  0  0  0  0  0  0  0  0  0  0  0
    4.5741   -1.7541    0.0000 O   0  0  0  0  0  0  0  0  0  0  0  0
    5.2885   -2.1666    0.0000 C   0  0  0  0  0  0  0  0  0  0  0  0
    6.0030   -1.7541    0.0000 C   0  0  0  0  0  0  0  0  0  0  0  0
    3.4471   -1.4522    0.0000 O   0  0  0  0  0  0  0  0  0  0  0  0
    3.8596   -0.7377    0.0000 C   0  0  0  0  0  0  0  0  0  0  0  0
    4.6846   -0.7377    0.0000 C   0  0  0  0  0  0  0  0  0  0  0  0
    3.1451   -2.5791    0.0000 O   0  0  0  0  0  0  0  0  0  0  0  0
    2.4307   -2.1666    0.0000 C   0  0  0  0  0  0  0  0  0  0  0  0
    2.4307   -1.3416    0.0000 C   0  0  0  0  0  0  0  0  0  0  0  0
    1.7162   -0.9291    0.0000 C   0  0  0  0  0  0  0  0  0  0  0  0
    1.7162   -0.1041    0.0000 C   0  0  0  0  0  0  0  0  0  0  0  0
    1.0017   -1.3416    0.0000 N   0  0  0  0  0  0  0  0  0  0  0  0
    1.0017   -2.1666    0.0000 C   0  0  0  0  0  0  0  0  0  0  0  0
    0.2872   -2.5791    0.0000 C   0  0  0  0  0  0  0  0  0  0  0  0
    0.2872   -3.4041    0.0000 C   0  0  0  0  0  0  0  0  0  0  0  0
   -0.4272   -2.1666    0.0000 C   0  0  0  0  0  0  0  0  0  0  0  0
    1.7162   -2.5791    0.0000 N   0  0  0  0  0  0  0  0  0  0  0  0
  1  2  2  0  0  0  0
  2  3  1  0  0  0  0
  3  4  1  0  0  0  0
  4  5  1  0  0  0  0
  2  6  1  0  0  0  0
  6  7  1  0  0  0  0
  7  8  1  0  0  0  0
  2  9  1  0  0  0  0
  9 10  1  0  0  0  0
 11 10  1  0  0  0  0
 12 11  2  0  0  0  0
 12 13  1  0  0  0  0
 14 12  1  0  0  0  0
 15 14  2  0  0  0  0
 15 16  1  0  0  0  0
 16 17  1  0  0  0  0
 16 18  1  0  0  0  0
 19 15  1  0  0  0  0
 10 19  2  0  0  0  0
M  END
> <ChemID>
100742

> <CAS>
333-41-5

> <Original_SMILES>
Cc1cc([n]c([n]1)C(C)C)OP(=S)(OCC)OCC

> <preferred_name>
Diazinon

> <dsstox_substance_id>
DTXSID9020407

> <dsstox_compound_id>
DTXCID50407

> <qc_level>
DSSTox_Low

> <Canonical_QSARr>
CC1=CC(=NC(=N1)C(C)C)OP(=S)(OCC)OCC

> <InChI_Code_QSARr>
InChI=1S/C12H21N2O3PS/c1-6-15-18(19,16-7-2)17-11-8-10(5)13-12(14-11)9(3)4/h8-9H,6-7H2,1-5H3

> <InChI Key_QSARr>
FHIVAFMUCKRCQO-UHFFFAOYSA-N

> <Salt_Solvent>


> <Salt_Solvent_ID>
0

> <MPID>
100750

> <Tr_1_Tst_0>
1

> <Ready_Biodeg>
0.0

$$$$
Row730
  Mrv171c012251911052D          

 12 11  0  0  0  0            999 V2000
   -0.0043   -0.6843    0.0000 C   0  0  0  0  0  0  0  0  0  0  0  0
    0.7102   -1.0968    0.0000 C   0  0  0  0  0  0  0  0  0  0  0  0
    1.4247   -0.6843    0.0000 C   0  0  0  0  0  0  0  0  0  0  0  0
    2.1392   -1.0968    0.0000 C   0  0  0  0  0  0  0  0  0  0  0  0
    2.8536   -0.6843    0.0000 C   0  0  0  0  0  0  0  0  0  0  0  0
    3.5681   -1.0968    0.0000 C   0  0  0  0  0  0  0  0  0  0  0  0
    4.2826   -0.6843    0.0000 C   0  0  0  0  0  0  0  0  0  0  0  0
    4.9970   -1.0968    0.0000 C   0  0  0  0  0  0  0  0  0  0  0  0
    5.7115   -0.6843    0.0000 C   0  0  0  0  0  0  0  0  0  0  0  0
    6.4260   -1.0968    0.0000 C   0  0  0  0  0  0  0  0  0  0  0  0
    7.1405   -0.6843    0.0000 O   0  0  0  0  0  0  0  0  0  0  0  0
    6.4260   -1.9218    0.0000 O   0  0  0  0  0  0  0  0  0  0  0  0
  1  2  1  0  0  0  0
  2  3  1  0  0  0  0
  3  4  1  0  0  0  0
  4  5  1  0  0  0  0
  5  6  1  0  0  0  0
  6  7  1  0  0  0  0
  7  8  1  0  0  0  0
  8  9  1  0  0  0  0
  9 10  1  0  0  0  0
 10 11  2  0  0  0  0
 10 12  1  0  0  0  0
M  END
> <ChemID>
100743

> <CAS>
334-48-5

> <Original_SMILES>
CCCCCCCCCC(O)=O

> <preferred_name>
Decanoic acid

> <dsstox_substance_id>
DTXSID9021554

> <dsstox_compound_id>
DTXCID201554

> <qc_level>
DSSTox_Low

> <Canonical_QSARr>
CCCCCCCCCC(O)=O

> <InChI_Code_QSARr>
InChI=1S/C10H20O2/c1-2-3-4-5-6-7-8-9-10(11)12/h2-9H2,1H3,(H,11,12)

> <InChI Key_QSARr>
GHVNFZFCNZKVNT-UHFFFAOYSA-N

> <Salt_Solvent>


> <Salt_Solvent_ID>
0

> <MPID>
100751

> <Tr_1_Tst_0>
1

> <Ready_Biodeg>
1.0

$$$$
Row731
  Mrv171c012251911052D          

 18 20  0  0  0  0            999 V2000
    8.3033    0.0051    0.0000 F   0  0  0  0  0  0  0  0  0  0  0  0
    7.4964   -0.1665    0.0000 C   0  0  0  0  0  0  0  0  0  0  0  0
    7.2414   -0.9511    0.0000 C   0  0  0  0  0  0  0  0  0  0  0  0
    6.4345   -1.1226    0.0000 C   0  0  0  0  0  0  0  0  0  0  0  0
    5.8824   -0.5095    0.0000 C   0  0  0  0  0  0  0  0  0  0  0  0
    6.1374    0.2751    0.0000 C   0  0  0  0  0  0  0  0  0  0  0  0
    5.4699    0.7600    0.0000 C   0  0  0  0  0  0  0  0  0  0  0  0
    4.8025    0.2751    0.0000 C   0  0  0  0  0  0  0  0  0  0  0  0
    3.9955    0.4466    0.0000 C   0  0  0  0  0  0  0  0  0  0  0  0
    3.4435   -0.1665    0.0000 C   0  0  0  0  0  0  0  0  0  0  0  0
    2.6365    0.0051    0.0000 N   0  0  0  0  0  0  0  0  0  0  0  0
    2.3816    0.7897    0.0000 C   0  0  0  0  0  0  0  0  0  0  0  0
    1.5746    0.9612    0.0000 C   0  0  0  0  0  0  0  0  0  0  0  0
    2.9336    1.4028    0.0000 O   0  0  0  0  0  0  0  0  0  0  0  0
    3.6984   -0.9511    0.0000 C   0  0  0  0  0  0  0  0  0  0  0  0
    4.5054   -1.1226    0.0000 C   0  0  0  0  0  0  0  0  0  0  0  0
    5.0574   -0.5095    0.0000 C   0  0  0  0  0  0  0  0  0  0  0  0
    6.9443    0.4466    0.0000 C   0  0  0  0  0  0  0  0  0  0  0  0
  1  2  1  0  0  0  0
  3  2  1  0  0  0  0
  4  3  2  0  0  0  0
  5  4  1  0  0  0  0
  5  6  2  0  0  0  0
  6  7  1  0  0  0  0
  7  8  1  0  0  0  0
  9  8  1  0  0  0  0
 10  9  2  0  0  0  0
 10 11  1  0  0  0  0
 11 12  1  0  0  0  0
 12 13  1  0  0  0  0
 12 14  2  0  0  0  0
 15 10  1  0  0  0  0
 16 15  2  0  0  0  0
 17 16  1  0  0  0  0
  8 17  2  0  0  0  0
 17  5  1  0  0  0  0
 18  6  1  0  0  0  0
  2 18  2  0  0  0  0
M  END
> <ChemID>
100744

> <CAS>
343-89-5

> <Original_SMILES>
CC(=O)Nc1cc2Cc3cc(F)ccc3-c2cc1

> <preferred_name>
7-Fluoro-N-2-acetylaminofluorene

> <dsstox_substance_id>
DTXSID80187863

> <dsstox_compound_id>
DTXCID40110354

> <qc_level>
Public_Medium

> <Canonical_QSARr>
CC(=O)NC1=CC2CC3C=C(F)C=CC=3C=2C=C1

> <InChI_Code_QSARr>
InChI=1S/C15H12FNO/c1-9(18)17-13-3-5-15-11(8-13)6-10-7-12(16)2-4-14(10)15/h2-5,7-8H,6H2,1H3,(H,17,18)

> <InChI Key_QSARr>
UAGZFYAGROGZQW-UHFFFAOYSA-N

> <Salt_Solvent>


> <Salt_Solvent_ID>
0

> <MPID>
100752

> <Tr_1_Tst_0>
0

> <Ready_Biodeg>
0.0

$$$$
Row732
  Mrv171c012251911052D          

  8  8  0  0  0  0            999 V2000
    0.3507   -1.2386    0.0000 C   0  0  0  0  0  0  0  0  0  0  0  0
    0.3507   -2.0636    0.0000 C   0  0  0  0  0  0  0  0  0  0  0  0
    1.0652   -2.4761    0.0000 C   0  0  0  0  0  0  0  0  0  0  0  0
    1.7796   -2.0636    0.0000 C   0  0  0  0  0  0  0  0  0  0  0  0
    1.7796   -1.2386    0.0000 C   0  0  0  0  0  0  0  0  0  0  0  0
    1.0652   -0.8261    0.0000 C   0  0  0  0  0  0  0  0  0  0  0  0
    1.0652   -0.0011    0.0000 F   0  0  0  0  0  0  0  0  0  0  0  0
   -0.3638   -0.8261    0.0000 O   0  0  0  0  0  0  0  0  0  0  0  0
  2  1  1  0  0  0  0
  3  2  2  0  0  0  0
  4  3  1  0  0  0  0
  5  4  2  0  0  0  0
  6  5  1  0  0  0  0
  1  6  2  0  0  0  0
  6  7  1  0  0  0  0
  1  8  1  0  0  0  0
M  END
> <ChemID>
100745

> <CAS>
367-12-4

> <Original_SMILES>
Oc1ccccc1F

> <preferred_name>
2-Fluorophenol

> <dsstox_substance_id>
DTXSID0047745

> <dsstox_compound_id>
DTXCID0027729

> <qc_level>
DSSTox_Low

> <Canonical_QSARr>
OC1C=CC=CC=1F

> <InChI_Code_QSARr>
InChI=1S/C6H5FO/c7-5-3-1-2-4-6(5)8/h1-4,8H

> <InChI Key_QSARr>
HFHFGHLXUCOHLN-UHFFFAOYSA-N

> <Salt_Solvent>


> <Salt_Solvent_ID>
0

> <MPID>
100753

> <Tr_1_Tst_0>
1

> <Ready_Biodeg>
0.0

$$$$
Row733
  Mrv171c012251911052D          

 10  9  0  0  0  0            999 V2000
    2.2835    2.1434    0.0000 N   0  0  0  0  0  0  0  0  0  0  0  0
    2.9980    2.5559    0.0000 C   0  0  0  0  0  0  0  0  0  0  0  0
    3.7124    2.1434    0.0000 C   0  0  0  0  0  0  0  0  0  0  0  0
    4.4269    2.5559    0.0000 C   0  0  0  0  0  0  0  0  0  0  0  0
    5.1414    2.1434    0.0000 C   0  0  0  0  0  0  0  0  0  0  0  0
    5.8559    2.5559    0.0000 C   0  0  0  0  0  0  0  0  0  0  0  0
    6.5703    2.1434    0.0000 C   0  0  0  0  0  0  0  0  0  0  0  0
    7.2848    2.5559    0.0000 C   0  0  0  0  0  0  0  0  0  0  0  0
    7.9993    2.1434    0.0000 C   0  0  0  0  0  0  0  0  0  0  0  0
    8.7137    2.5559    0.0000 N   0  0  0  0  0  0  0  0  0  0  0  0
  1  2  1  0  0  0  0
  2  3  1  0  0  0  0
  3  4  1  0  0  0  0
  4  5  1  0  0  0  0
  5  6  1  0  0  0  0
  6  7  1  0  0  0  0
  7  8  1  0  0  0  0
  8  9  1  0  0  0  0
  9 10  1  0  0  0  0
M  END
> <ChemID>
100746

> <CAS>
373-44-4

> <Original_SMILES>
NCCCCCCCCN

> <preferred_name>
1,8-Octanediamine

> <dsstox_substance_id>
DTXSID9073173

> <dsstox_compound_id>
DTXCID5039309

> <qc_level>
Public_High

> <Canonical_QSARr>
NCCCCCCCCN

> <InChI_Code_QSARr>
InChI=1S/C8H20N2/c9-7-5-3-1-2-4-6-8-10/h1-10H2

> <InChI Key_QSARr>
PWGJDPKCLMLPJW-UHFFFAOYSA-N

> <Salt_Solvent>


> <Salt_Solvent_ID>
0

> <MPID>
100754

> <Tr_1_Tst_0>
1

> <Ready_Biodeg>
1.0

$$$$
Row734
  Mrv171c012251911052D          

 18 17  0  0  0  0            999 V2000
   -0.7146    0.0917    0.0000 O   0  0  0  0  0  0  0  0  0  0  0  0
   -0.0001   -0.3208    0.0000 C   0  0  0  0  0  0  0  0  0  0  0  0
    0.7143    0.0917    0.0000 C   0  0  0  0  0  0  0  0  0  0  0  0
    1.4288   -0.3208    0.0000 C   0  0  0  0  0  0  0  0  0  0  0  0
    2.1433    0.0917    0.0000 C   0  0  0  0  0  0  0  0  0  0  0  0
    2.8577   -0.3208    0.0000 C   0  0  0  0  0  0  0  0  0  0  0  0
    3.5722    0.0917    0.0000 C   0  0  0  0  0  0  0  0  0  0  0  0
    4.2867   -0.3208    0.0000 C   0  0  0  0  0  0  0  0  0  0  0  0
    5.0012    0.0917    0.0000 C   0  0  0  0  0  0  0  0  0  0  0  0
    5.7156   -0.3208    0.0000 C   0  0  0  0  0  0  0  0  0  0  0  0
    6.4301    0.0917    0.0000 C   0  0  0  0  0  0  0  0  0  0  0  0
    7.1446   -0.3208    0.0000 C   0  0  0  0  0  0  0  0  0  0  0  0
    7.8590    0.0917    0.0000 C   0  0  0  0  0  0  0  0  0  0  0  0
    8.5735   -0.3208    0.0000 C   0  0  0  0  0  0  0  0  0  0  0  0
    9.2880    0.0917    0.0000 C   0  0  0  0  0  0  0  0  0  0  0  0
   10.0024   -0.3208    0.0000 C   0  0  0  0  0  0  0  0  0  0  0  0
   10.7169    0.0917    0.0000 C   0  0  0  0  0  0  0  0  0  0  0  0
   -0.0001   -1.1458    0.0000 O   0  0  0  0  0  0  0  0  0  0  0  0
  1  2  1  0  0  0  0
  2  3  1  0  0  0  0
  3  4  1  0  0  0  0
  4  5  1  0  0  0  0
  5  6  1  0  0  0  0
  6  7  1  0  0  0  0
  7  8  1  0  0  0  0
  8  9  1  0  0  0  0
  9 10  1  0  0  0  0
 10 11  1  0  0  0  0
 11 12  1  0  0  0  0
 12 13  1  0  0  0  0
 13 14  1  0  0  0  0
 14 15  1  0  0  0  0
 15 16  1  0  0  0  0
 16 17  1  0  0  0  0
  2 18  2  0  0  0  0
M  END
> <ChemID>
100748

> <CAS>
408-35-5

> <Original_SMILES>
[Na+].CCCCCCCCCCCCCCCC([O-])=O

> <preferred_name>
Sodium palmitate

> <dsstox_substance_id>
DTXSID2041127

> <dsstox_compound_id>
DTXCID0021127

> <qc_level>
DSSTox_Low

> <Canonical_QSARr>
CCCCCCCCCCCCCCCC(O)=O

> <InChI_Code_QSARr>
InChI=1S/C16H32O2/c1-2-3-4-5-6-7-8-9-10-11-12-13-14-15-16(17)18/h2-15H2,1H3,(H,17,18)

> <InChI Key_QSARr>
IPCSVZSSVZVIGE-UHFFFAOYSA-N

> <Salt_Solvent>
[Na+]

> <Salt_Solvent_ID>
110

> <MPID>
100755

> <Tr_1_Tst_0>
0

> <Ready_Biodeg>
1.0

$$$$
Row735
  Mrv171c012251911052D          

  9  9  0  0  0  0            999 V2000
    2.5410   -1.6499    0.0000 O   0  0  0  0  0  0  0  0  0  0  0  0
    1.8265   -1.2374    0.0000 C   0  0  0  0  0  0  0  0  0  0  0  0
    1.8265   -0.4124    0.0000 C   0  0  0  0  0  0  0  0  0  0  0  0
    1.1121    0.0001    0.0000 C   0  0  0  0  0  0  0  0  0  0  0  0
    1.1121    0.8251    0.0000 C   0  0  0  0  0  0  0  0  0  0  0  0
    0.3976   -0.4124    0.0000 C   0  0  0  0  0  0  0  0  0  0  0  0
    0.3976   -1.2374    0.0000 C   0  0  0  0  0  0  0  0  0  0  0  0
    1.1121   -1.6499    0.0000 C   0  0  0  0  0  0  0  0  0  0  0  0
    1.1121   -2.4749    0.0000 O   0  0  0  0  0  0  0  0  0  0  0  0
  1  2  1  0  0  0  0
  3  2  1  0  0  0  0
  4  3  2  0  0  0  0
  4  5  1  0  0  0  0
  6  4  1  0  0  0  0
  7  6  2  0  0  0  0
  8  7  1  0  0  0  0
  2  8  2  0  0  0  0
  8  9  1  0  0  0  0
M  END
> <ChemID>
100750

> <CAS>
452-86-8

> <Original_SMILES>
Cc1cc(O)c(O)cc1

> <preferred_name>
4-Methylcatechol

> <dsstox_substance_id>
DTXSID5020861

> <dsstox_compound_id>
DTXCID30861

> <qc_level>
DSSTox_Low

> <Canonical_QSARr>
CC1=CC(O)=C(O)C=C1

> <InChI_Code_QSARr>
InChI=1S/C7H8O2/c1-5-2-3-6(8)7(9)4-5/h2-4,8-9H,1H3

> <InChI Key_QSARr>
ZBCATMYQYDCTIZ-UHFFFAOYSA-N

> <Salt_Solvent>


> <Salt_Solvent_ID>
0

> <MPID>
100756

> <Tr_1_Tst_0>
1

> <Ready_Biodeg>
0.0

$$$$
Row736
  Mrv171c012251911052D          

  6  5  0  0  0  0            999 V2000
    1.4433   -0.1192    0.0000 C   0  0  0  0  0  0  0  0  0  0  0  0
    1.0308    0.5953    0.0000 N   0  0  0  0  0  0  0  0  0  0  0  0
    1.8558   -0.8337    0.0000 N   0  0  0  0  0  0  0  0  0  0  0  0
    1.4433   -1.5481    0.0000 C   0  0  0  0  0  0  0  0  0  0  0  0
    1.8558   -2.2626    0.0000 N   0  0  0  0  0  0  0  0  0  0  0  0
    0.6183   -1.5481    0.0000 N   0  0  0  0  0  0  0  0  0  0  0  0
  1  2  3  0  0  0  0
  1  3  1  0  0  0  0
  3  4  1  0  0  0  0
  4  5  1  0  0  0  0
  4  6  2  0  0  0  0
M  END
> <ChemID>
100751

> <CAS>
461-58-5

> <Original_SMILES>
NC(=N)NC#N

> <preferred_name>
Cyanoguanidine

> <dsstox_substance_id>
DTXSID1020354

> <dsstox_compound_id>
DTXCID50354

> <qc_level>
DSSTox_High

> <Canonical_QSARr>
NC(=N)NC#N

> <InChI_Code_QSARr>
InChI=1S/C2H4N4/c3-1-6-2(4)5/h(H4,4,5,6)

> <InChI Key_QSARr>
QGBSISYHAICWAH-UHFFFAOYSA-N

> <Salt_Solvent>


> <Salt_Solvent_ID>
0

> <MPID>
100757

> <Tr_1_Tst_0>
0

> <Ready_Biodeg>
0.0

$$$$
Row737
  Mrv171c012251911052D          

  7  7  0  0  0  0            999 V2000
    1.6297   -1.3480    0.0000 N   0  0  0  0  0  0  0  0  0  0  0  0
    1.6297   -0.5230    0.0000 C   0  0  0  0  0  0  0  0  0  0  0  0
    0.9153   -0.1105    0.0000 C   0  0  0  0  0  0  0  0  0  0  0  0
    0.9153    0.7145    0.0000 N   0  0  0  0  0  0  0  0  0  0  0  0
    0.2008   -0.5230    0.0000 C   0  0  0  0  0  0  0  0  0  0  0  0
    0.2008   -1.3480    0.0000 C   0  0  0  0  0  0  0  0  0  0  0  0
    0.9153   -1.7605    0.0000 C   0  0  0  0  0  0  0  0  0  0  0  0
  2  1  1  0  0  0  0
  3  2  2  0  0  0  0
  3  4  1  0  0  0  0
  5  3  1  0  0  0  0
  6  5  2  0  0  0  0
  7  6  1  0  0  0  0
  1  7  2  0  0  0  0
M  END
> <ChemID>
100752

> <CAS>
462-08-8

> <Original_SMILES>
Nc1c[n]ccc1

> <preferred_name>
3-Pyridinamine

> <dsstox_substance_id>
DTXSID9047461

> <dsstox_compound_id>
DTXCID7027461

> <qc_level>
DSSTox_Low

> <Canonical_QSARr>
NC1=CN=CC=C1

> <InChI_Code_QSARr>
InChI=1S/C5H6N2/c6-5-2-1-3-7-4-5/h1-4H,6H2

> <InChI Key_QSARr>
CUYKNJBYIJFRCU-UHFFFAOYSA-N

> <Salt_Solvent>


> <Salt_Solvent_ID>
0

> <MPID>
100758

> <Tr_1_Tst_0>
1

> <Ready_Biodeg>
0.0

$$$$
Row738
  Mrv171c012251911052D          

 20 19  0  0  0  0            999 V2000
    0.8546    6.2684    0.0000 C   0  0  0  0  0  0  0  0  0  0  0  0
    0.1401    5.8559    0.0000 C   0  0  0  0  0  0  0  0  0  0  0  0
    0.1401    5.0309    0.0000 C   0  0  0  0  0  0  0  0  0  0  0  0
   -0.5743    4.6184    0.0000 C   0  0  0  0  0  0  0  0  0  0  0  0
   -0.5743    3.7934    0.0000 C   0  0  0  0  0  0  0  0  0  0  0  0
    0.1401    3.3809    0.0000 C   0  0  0  0  0  0  0  0  0  0  0  0
    0.1401    2.5559    0.0000 C   0  0  0  0  0  0  0  0  0  0  0  0
    0.8546    2.1434    0.0000 C   0  0  0  0  0  0  0  0  0  0  0  0
    1.5691    2.5559    0.0000 C   0  0  0  0  0  0  0  0  0  0  0  0
    2.2836    2.1434    0.0000 C   0  0  0  0  0  0  0  0  0  0  0  0
    2.9980    2.5559    0.0000 C   0  0  0  0  0  0  0  0  0  0  0  0
    3.7125    2.1434    0.0000 C   0  0  0  0  0  0  0  0  0  0  0  0
    4.4270    2.5559    0.0000 C   0  0  0  0  0  0  0  0  0  0  0  0
    5.1414    2.1434    0.0000 C   0  0  0  0  0  0  0  0  0  0  0  0
    5.8559    2.5559    0.0000 C   0  0  0  0  0  0  0  0  0  0  0  0
    6.5704    2.1434    0.0000 C   0  0  0  0  0  0  0  0  0  0  0  0
    7.2849    2.5559    0.0000 C   0  0  0  0  0  0  0  0  0  0  0  0
    7.9993    2.1434    0.0000 C   0  0  0  0  0  0  0  0  0  0  0  0
    8.7138    2.5559    0.0000 O   0  0  0  0  0  0  0  0  0  0  0  0
    7.9993    1.3184    0.0000 O   0  0  0  0  0  0  0  0  0  0  0  0
  1  2  1  0  0  0  0
  3  2  1  4  0  0  0
  3  4  2  0  0  0  0
  4  5  1  0  0  0  0
  6  5  1  4  0  0  0
  6  7  2  0  0  0  0
  7  8  1  0  0  0  0
  9  8  1  4  0  0  0
  9 10  2  0  0  0  0
 10 11  1  0  0  0  0
 11 12  1  0  0  0  0
 12 13  1  0  0  0  0
 13 14  1  0  0  0  0
 14 15  1  0  0  0  0
 15 16  1  0  0  0  0
 16 17  1  0  0  0  0
 17 18  1  0  0  0  0
 18 19  1  0  0  0  0
 18 20  2  0  0  0  0
M  END
> <ChemID>
100753

> <CAS>
463-40-1

> <Original_SMILES>
CC/C=C\C/C=C\C/C=C\CCCCCCCC(O)=O

> <preferred_name>
Linolenic acid

> <dsstox_substance_id>
DTXSID7025506

> <dsstox_compound_id>
DTXCID905506

> <qc_level>
DSSTox_Low

> <Canonical_QSARr>
CCC=CCC=CCC=CCCCCCCCC(O)=O

> <InChI_Code_QSARr>
InChI=1S/C18H30O2/c1-2-3-4-5-6-7-8-9-10-11-12-13-14-15-16-17-18(19)20/h3-4,6-7,9-10H,2,5,8,11-17H2,1H3,(H,19,20)

> <InChI Key_QSARr>
DTOSIQBPPRVQHS-UHFFFAOYSA-N

> <Salt_Solvent>


> <Salt_Solvent_ID>
0

> <MPID>
100759

> <Tr_1_Tst_0>
1

> <Ready_Biodeg>
1.0

$$$$
Row739
  Mrv171c012251911052D          

 11 12  0  0  0  0            999 V2000
    1.2345   -1.8701    0.0000 C   0  0  0  0  0  0  0  0  0  0  0  0
    1.3432   -2.7249    0.0000 C   0  0  0  0  0  0  0  0  0  0  0  0
    0.4375   -1.5401    0.0000 C   0  0  0  0  0  0  0  0  0  0  0  0
    0.4375   -0.5501    0.0000 C   0  0  0  0  0  0  0  0  0  0  0  0
    1.2345   -0.2201    0.0000 C   0  0  0  0  0  0  0  0  0  0  0  0
    1.4408   -1.0451    0.0000 C   0  0  0  0  0  0  0  0  0  0  0  0
    0.7777   -0.2419    0.0000 C   0  0  0  0  0  0  0  0  0  0  0  0
    0.5709   -1.0672    0.0000 C   0  0  0  0  0  0  0  0  0  0  0  0
    1.9490   -0.6326    0.0000 C   0  0  0  0  0  0  0  0  0  0  0  0
    1.9490   -1.4576    0.0000 C   0  0  0  0  0  0  0  0  0  0  0  0
    2.7106   -1.8533    0.0000 O   0  0  0  0  0  0  0  0  0  0  0  0
  1  2  1  0  0  0  0
  3  1  1  0  0  0  0
  4  3  1  0  0  0  0
  5  4  1  0  0  0  0
  5  6  1  0  0  0  0
  6  1  1  0  0  0  0
  6  7  1  0  0  0  0
  6  8  1  0  0  0  0
  9  5  1  0  0  0  0
 10  9  1  0  0  0  0
  1 10  1  0  0  0  0
 10 11  1  0  0  0  0
M  END
> <ChemID>
100754

> <CAS>
464-45-9|507-70-0

> <Original_SMILES>
CC1(C)[C@@H]2C[C@@H](O)[C@@]1(C)CC2

> <preferred_name>
[(1S)-endo]-(-)-Borneol|dl-Borneol

> <dsstox_substance_id>
DTXSID3022035|DTXSID3052143

> <dsstox_compound_id>
DTXCID102035|DTXCID8030712

> <qc_level>
DSSTox_High

> <Canonical_QSARr>
CC1(C)C2CC(O)C1(C)CC2

> <InChI_Code_QSARr>
InChI=1S/C10H18O/c1-9(2)7-4-5-10(9,3)8(11)6-7/h7-8,11H,4-6H2,1-3H3

> <InChI Key_QSARr>
DTGKSKDOIYIVQL-UHFFFAOYSA-N

> <Salt_Solvent>


> <Salt_Solvent_ID>
0

> <MPID>
100760|100782

> <Tr_1_Tst_0>
1

> <Ready_Biodeg>
1.0

$$$$
Row740
  Mrv171c012251911052D          

 18 21  0  0  0  0            999 V2000
    0.2529   -1.3119    0.0000 C   0  0  0  0  0  0  0  0  0  0  0  0
    0.9674   -0.8994    0.0000 C   0  0  0  0  0  0  0  0  0  0  0  0
    1.7946   -1.2817    0.0000 C   0  0  0  0  0  0  0  0  0  0  0  0
    2.3964   -0.8994    0.0000 C   0  0  0  0  0  0  0  0  0  0  0  0
    2.5403   -0.0174    0.0000 Cl  0  0  0  0  0  0  0  0  0  0  0  0
    3.1108   -1.3119    0.0000 C   0  0  0  0  0  0  0  0  0  0  0  0
    3.8679   -0.8878    0.0000 Cl  0  0  0  0  0  0  0  0  0  0  0  0
    3.1108   -2.1369    0.0000 C   0  0  0  0  0  0  0  0  0  0  0  0
    3.8674   -2.5649    0.0000 Cl  0  0  0  0  0  0  0  0  0  0  0  0
    2.3964   -2.5494    0.0000 C   0  0  0  0  0  0  0  0  0  0  0  0
    2.5202   -3.4331    0.0000 Cl  0  0  0  0  0  0  0  0  0  0  0  0
    2.1901   -1.7244    0.0000 C   0  0  0  0  0  0  0  0  0  0  0  0
    1.8106   -2.6908    0.0000 Cl  0  0  0  0  0  0  0  0  0  0  0  0
    1.7900   -0.7482    0.0000 Cl  0  0  0  0  0  0  0  0  0  0  0  0
    1.6819   -2.1369    0.0000 C   0  0  0  0  0  0  0  0  0  0  0  0
    0.9674   -2.5494    0.0000 C   0  0  0  0  0  0  0  0  0  0  0  0
    0.7612   -1.7244    0.0000 C   0  0  0  0  0  0  0  0  0  0  0  0
    0.2529   -2.1369    0.0000 C   0  0  0  0  0  0  0  0  0  0  0  0
  2  1  1  0  0  0  0
  2  3  1  0  0  0  0
  4  3  1  0  0  0  0
  4  5  1  0  0  0  0
  4  6  1  0  0  0  0
  6  7  1  0  0  0  0
  6  8  2  0  0  0  0
  8  9  1  0  0  0  0
  8 10  1  0  0  0  0
 10 11  1  0  0  0  0
 10 12  1  0  0  0  0
 12  4  1  0  0  0  0
 12 13  1  0  0  0  0
 12 14  1  0  0  0  0
 15 10  1  0  0  0  0
  3 15  1  0  0  0  0
 15 16  1  0  0  0  0
 16 17  1  0  0  0  0
 17  2  1  0  0  0  0
 18 16  1  0  0  0  0
  1 18  2  0  0  0  0
M  END
> <ChemID>
100755

> <CAS>
465-73-6

> <Original_SMILES>
ClC1(Cl)[C@]2(Cl)[C@H]3[C@@H]4C[C@H](C=C4)[C@H]3[C@@]1(Cl)C(Cl)=C2Cl

> <preferred_name>
Isodrin

> <dsstox_substance_id>
DTXSID7042065

> <dsstox_compound_id>
DTXCID5022065

> <qc_level>
DSSTox_Low

> <Canonical_QSARr>
ClC1(Cl)C2(Cl)C3C4CC(C=C4)C3C1(Cl)C(Cl)=C2Cl

> <InChI_Code_QSARr>
InChI=1S/C12H8Cl6/c13-8-9(14)11(16)7-5-2-1-4(3-5)6(7)10(8,15)12(11,17)18/h1-2,4-7H,3H2

> <InChI Key_QSARr>
QBYJBZPUGVGKQQ-UHFFFAOYSA-N

> <Salt_Solvent>


> <Salt_Solvent_ID>
0

> <MPID>
100761

> <Tr_1_Tst_0>
0

> <Ready_Biodeg>
0.0

$$$$
Row741
  Mrv171c012251911052D          

 12 13  0  0  0  0            999 V2000
    1.4238   -1.2289    0.0000 C   0  0  0  0  0  0  0  0  0  0  0  0
    0.7093   -0.8164    0.0000 C   0  0  0  0  0  0  0  0  0  0  0  0
    0.7093    0.0086    0.0000 N   0  0  0  0  0  0  0  0  0  0  0  0
   -0.0051   -1.2289    0.0000 C   0  0  0  0  0  0  0  0  0  0  0  0
   -0.0051   -2.0539    0.0000 C   0  0  0  0  0  0  0  0  0  0  0  0
    0.7093   -2.4664    0.0000 C   0  0  0  0  0  0  0  0  0  0  0  0
    1.4238   -2.0539    0.0000 C   0  0  0  0  0  0  0  0  0  0  0  0
    2.1383   -2.4664    0.0000 C   0  0  0  0  0  0  0  0  0  0  0  0
    2.8527   -2.0539    0.0000 C   0  0  0  0  0  0  0  0  0  0  0  0
    2.8527   -1.2289    0.0000 C   0  0  0  0  0  0  0  0  0  0  0  0
    2.1383   -0.8164    0.0000 C   0  0  0  0  0  0  0  0  0  0  0  0
    2.1383    0.0086    0.0000 N   0  0  0  0  0  0  0  0  0  0  0  0
  2  1  1  0  0  0  0
  2  3  1  0  0  0  0
  4  2  2  0  0  0  0
  5  4  1  0  0  0  0
  6  5  2  0  0  0  0
  7  6  1  0  0  0  0
  7  1  2  0  0  0  0
  8  7  1  0  0  0  0
  9  8  2  0  0  0  0
 10  9  1  0  0  0  0
 11 10  2  0  0  0  0
  1 11  1  0  0  0  0
 11 12  1  0  0  0  0
M  END
> <ChemID>
100756

> <CAS>
479-27-6

> <Original_SMILES>
Nc1cccc2cccc(N)c12

> <preferred_name>
1,8-Naphthalenediamine

> <dsstox_substance_id>
DTXSID6044432

> <dsstox_compound_id>
DTXCID4024432

> <qc_level>
DSSTox_Low

> <Canonical_QSARr>
NC1=CC=CC2C=CC=C(N)C1=2

> <InChI_Code_QSARr>
InChI=1S/C10H10N2/c11-8-5-1-3-7-4-2-6-9(12)10(7)8/h1-6H,11-12H2

> <InChI Key_QSARr>
YFOOEYJGMMJJLS-UHFFFAOYSA-N

> <Salt_Solvent>


> <Salt_Solvent_ID>
0

> <MPID>
100762

> <Tr_1_Tst_0>
1

> <Ready_Biodeg>
0.0

$$$$
Row742
  Mrv171c012251911052D          

 18 19  0  0  0  0            999 V2000
    1.4289   -2.4750    0.0000 C   0  0  0  0  0  0  0  0  0  0  0  0
    1.4289   -1.6500    0.0000 C   0  0  0  0  0  0  0  0  0  0  0  0
    0.7145   -1.2375    0.0000 C   0  0  0  0  0  0  0  0  0  0  0  0
    0.7145   -0.4125    0.0000 C   0  0  0  0  0  0  0  0  0  0  0  0
    1.4289    0.0000    0.0000 C   0  0  0  0  0  0  0  0  0  0  0  0
    2.1434   -0.4125    0.0000 C   0  0  0  0  0  0  0  0  0  0  0  0
    2.8579    0.0000    0.0000 O   0  0  0  0  0  0  0  0  0  0  0  0
    2.1434   -1.2375    0.0000 O   0  0  0  0  0  0  0  0  0  0  0  0
    1.4289    0.8250    0.0000 C   0  0  0  0  0  0  0  0  0  0  0  0
    0.7145    1.2375    0.0000 C   0  0  0  0  0  0  0  0  0  0  0  0
   -0.0000    0.8250    0.0000 C   0  0  0  0  0  0  0  0  0  0  0  0
   -0.0000    0.0000    0.0000 C   0  0  0  0  0  0  0  0  0  0  0  0
   -0.0000   -1.6500    0.0000 C   0  0  0  0  0  0  0  0  0  0  0  0
   -0.7145   -1.2375    0.0000 C   0  0  0  0  0  0  0  0  0  0  0  0
   -1.4289   -1.6500    0.0000 O   0  0  0  0  0  0  0  0  0  0  0  0
   -0.7145   -0.4125    0.0000 O   0  0  0  0  0  0  0  0  0  0  0  0
   -0.0000   -2.4750    0.0000 C   0  0  0  0  0  0  0  0  0  0  0  0
    0.7145   -2.8875    0.0000 C   0  0  0  0  0  0  0  0  0  0  0  0
  2  1  1  0  0  0  0
  3  2  2  0  0  0  0
  3  4  1  0  0  0  0
  5  4  1  0  0  0  0
  5  6  1  0  0  0  0
  6  7  1  0  0  0  0
  6  8  2  0  0  0  0
  9  5  2  0  0  0  0
 10  9  1  0  0  0  0
 11 10  2  0  0  0  0
 12 11  1  0  0  0  0
  4 12  2  0  0  0  0
 13  3  1  0  0  0  0
 13 14  1  0  0  0  0
 14 15  1  0  0  0  0
 14 16  2  0  0  0  0
 17 13  2  0  0  0  0
 18 17  1  0  0  0  0
  1 18  2  0  0  0  0
M  END
> <ChemID>
100757

> <CAS>
482-05-3

> <Original_SMILES>
OC(=O)c1ccccc1-c1ccccc1C(O)=O

> <preferred_name>
[1,1'-Biphenyl]-2,2'-dicarboxylic acid

> <dsstox_substance_id>
DTXSID0060064

> <dsstox_compound_id>
DTXCID6040610

> <qc_level>
Public_High

> <Canonical_QSARr>
OC(=O)C1=CC=CC=C1C1=CC=CC=C1C(O)=O

> <InChI_Code_QSARr>
InChI=1S/C14H10O4/c15-13(16)11-7-3-1-5-9(11)10-6-2-4-8-12(10)14(17)18/h1-8H,(H,15,16)(H,17,18)

> <InChI Key_QSARr>
GWZCCUDJHOGOSO-UHFFFAOYSA-N

> <Salt_Solvent>


> <Salt_Solvent_ID>
0

> <MPID>
100763

> <Tr_1_Tst_0>
1

> <Ready_Biodeg>
1.0

$$$$
Row743
  Mrv171c012251911052D          

 20 23  0  0  0  0            999 V2000
   -1.3099   -0.8126    0.0000 N   0  0  0  0  0  0  0  0  0  0  0  0
   -2.0945   -0.5577    0.0000 C   0  0  0  0  0  0  0  0  0  0  0  0
   -2.8090   -0.9702    0.0000 C   0  0  0  0  0  0  0  0  0  0  0  0
   -3.5235   -0.5577    0.0000 C   0  0  0  0  0  0  0  0  0  0  0  0
   -3.5235    0.2673    0.0000 C   0  0  0  0  0  0  0  0  0  0  0  0
   -2.8090    0.6798    0.0000 C   0  0  0  0  0  0  0  0  0  0  0  0
   -2.0945    0.2673    0.0000 C   0  0  0  0  0  0  0  0  0  0  0  0
   -1.3099    0.5222    0.0000 C   0  0  0  0  0  0  0  0  0  0  0  0
   -1.0550    1.3069    0.0000 O   0  0  0  0  0  0  0  0  0  0  0  0
   -0.8250   -0.1452    0.0000 C   0  0  0  0  0  0  0  0  0  0  0  0
    0.0000   -0.1452    0.0000 C   0  0  0  0  0  0  0  0  0  0  0  0
    0.4849    0.5222    0.0000 C   0  0  0  0  0  0  0  0  0  0  0  0
    0.2300    1.3069    0.0000 O   0  0  0  0  0  0  0  0  0  0  0  0
    1.2695    0.2673    0.0000 C   0  0  0  0  0  0  0  0  0  0  0  0
    1.9840    0.6798    0.0000 C   0  0  0  0  0  0  0  0  0  0  0  0
    2.6985    0.2673    0.0000 C   0  0  0  0  0  0  0  0  0  0  0  0
    2.6985   -0.5577    0.0000 C   0  0  0  0  0  0  0  0  0  0  0  0
    1.9840   -0.9702    0.0000 C   0  0  0  0  0  0  0  0  0  0  0  0
    1.2695   -0.5577    0.0000 C   0  0  0  0  0  0  0  0  0  0  0  0
    0.4849   -0.8126    0.0000 N   0  0  0  0  0  0  0  0  0  0  0  0
  2  1  1  0  0  0  0
  2  3  1  0  0  0  0
  3  4  2  0  0  0  0
  4  5  1  0  0  0  0
  5  6  2  0  0  0  0
  6  7  1  0  0  0  0
  7  2  2  0  0  0  0
  8  7  1  0  0  0  0
  8  9  2  0  0  0  0
 10  8  1  0  0  0  0
  1 10  2  0  0  0  0
 10 11  1  0  0  0  0
 12 11  1  0  0  0  0
 12 13  2  0  0  0  0
 14 12  1  0  0  0  0
 14 15  1  0  0  0  0
 15 16  2  0  0  0  0
 16 17  1  0  0  0  0
 17 18  2  0  0  0  0
 18 19  1  0  0  0  0
 19 14  2  0  0  0  0
 20 19  1  0  0  0  0
 11 20  1  0  0  0  0
M  END
> <ChemID>
100758

> <CAS>
482-89-3

> <Original_SMILES>
O=C1/C(/Nc2ccccc12)=C1\Nc2ccccc2C\1=O

> <preferred_name>
Indigo

> <dsstox_substance_id>
DTXSID3026279

> <dsstox_compound_id>
DTXCID101022739

> <qc_level>
DSSTox_Low

> <Canonical_QSARr>
O=C1C(=NC2C=CC=CC1=2)C1NC2C=CC=CC=2C1=O

> <InChI_Code_QSARr>
InChI=1S/C16H10N2O2/c19-15-9-5-1-3-7-11(9)17-13(15)14-16(20)10-6-2-4-8-12(10)18-14/h1-8,13,17H

> <InChI Key_QSARr>
ZYXBTFUCIUWLOM-UHFFFAOYSA-N

> <Salt_Solvent>


> <Salt_Solvent_ID>
0

> <MPID>
100764

> <Tr_1_Tst_0>
1

> <Ready_Biodeg>
0.0

$$$$
Row744
  Mrv171c012251911052D          

 18 21  0  0  0  0            999 V2000
    2.2395   -1.0050    0.0000 N   0  0  0  0  0  0  0  0  0  0  0  0
    2.7795   -0.3813    0.0000 C   0  0  0  0  0  0  0  0  0  0  0  0
    3.5897   -0.5372    0.0000 C   0  0  0  0  0  0  0  0  0  0  0  0
    3.8597   -1.3168    0.0000 C   0  0  0  0  0  0  0  0  0  0  0  0
    4.6699   -1.4727    0.0000 C   0  0  0  0  0  0  0  0  0  0  0  0
    4.9399   -2.2522    0.0000 C   0  0  0  0  0  0  0  0  0  0  0  0
    4.3998   -2.8759    0.0000 C   0  0  0  0  0  0  0  0  0  0  0  0
    3.5897   -2.7200    0.0000 C   0  0  0  0  0  0  0  0  0  0  0  0
    3.3196   -1.9404    0.0000 C   0  0  0  0  0  0  0  0  0  0  0  0
    2.5095   -1.7845    0.0000 C   0  0  0  0  0  0  0  0  0  0  0  0
    1.9694   -2.4082    0.0000 C   0  0  0  0  0  0  0  0  0  0  0  0
    1.1593   -2.2522    0.0000 C   0  0  0  0  0  0  0  0  0  0  0  0
    0.6192   -2.8759    0.0000 C   0  0  0  0  0  0  0  0  0  0  0  0
   -0.1909   -2.7200    0.0000 C   0  0  0  0  0  0  0  0  0  0  0  0
   -0.4610   -1.9404    0.0000 C   0  0  0  0  0  0  0  0  0  0  0  0
    0.0791   -1.3168    0.0000 C   0  0  0  0  0  0  0  0  0  0  0  0
    0.8892   -1.4727    0.0000 C   0  0  0  0  0  0  0  0  0  0  0  0
    1.4293   -0.8491    0.0000 C   0  0  0  0  0  0  0  0  0  0  0  0
  2  1  1  0  0  0  0
  3  2  1  0  0  0  0
  4  3  1  0  0  0  0
  4  5  2  0  0  0  0
  5  6  1  0  0  0  0
  6  7  2  0  0  0  0
  7  8  1  0  0  0  0
  8  9  2  0  0  0  0
  9  4  1  0  0  0  0
 10  9  1  0  0  0  0
 10  1  1  0  0  0  0
 11 10  1  0  0  0  0
 12 11  1  0  0  0  0
 12 13  1  0  0  0  0
 13 14  2  0  0  0  0
 14 15  1  0  0  0  0
 15 16  2  0  0  0  0
 16 17  1  0  0  0  0
 17 12  2  0  0  0  0
 18 17  1  0  0  0  0
  1 18  1  0  0  0  0
M  END
> <ChemID>
100759

> <CAS>
NOCAS_870550

> <Original_SMILES>
C1C2c3ccccc3CCN2Cc2ccccc21

> <preferred_name>


> <dsstox_substance_id>
DTXSID70870550

> <dsstox_compound_id>
DTXCID20818265

> <qc_level>


> <Canonical_QSARr>
C1C2C3=CC=CC=C3CCN2CC2C=CC=CC=21

> <InChI_Code_QSARr>
InChI=1S/C17H17N/c1-2-7-15-12-18-10-9-13-5-3-4-8-16(13)17(18)11-14(15)6-1/h1-8,17H,9-12H2

> <InChI Key_QSARr>
BRLDZKPJJNASGG-UHFFFAOYSA-N

> <Salt_Solvent>


> <Salt_Solvent_ID>
0

> <MPID>
100766

> <Tr_1_Tst_0>
0

> <Ready_Biodeg>
0.0

$$$$
Row745
  Mrv171c012251911052D          

 11 11  0  0  0  0            999 V2000
    1.8186    0.8250    0.0000 C   0  0  0  0  0  0  0  0  0  0  0  0
    1.1042    1.2375    0.0000 C   0  0  0  0  0  0  0  0  0  0  0  0
    1.1042    2.0625    0.0000 C   0  0  0  0  0  0  0  0  0  0  0  0
    0.3897    2.4750    0.0000 C   0  0  0  0  0  0  0  0  0  0  0  0
    0.3897    3.3000    0.0000 O   0  0  0  0  0  0  0  0  0  0  0  0
   -0.3248    2.0625    0.0000 O   0  0  0  0  0  0  0  0  0  0  0  0
    1.8186    2.4750    0.0000 C   0  0  0  0  0  0  0  0  0  0  0  0
    0.3897    0.8250    0.0000 C   0  0  0  0  0  0  0  0  0  0  0  0
    0.3897    0.0000    0.0000 C   0  0  0  0  0  0  0  0  0  0  0  0
    1.1042   -0.4125    0.0000 C   0  0  0  0  0  0  0  0  0  0  0  0
    1.8186   -0.0000    0.0000 C   0  0  0  0  0  0  0  0  0  0  0  0
  2  1  1  0  0  0  0
  2  3  1  0  0  0  0
  3  4  1  0  0  0  0
  4  5  1  0  0  0  0
  4  6  2  0  0  0  0
  3  7  2  0  0  0  0
  8  2  2  0  0  0  0
  9  8  1  0  0  0  0
 10  9  2  0  0  0  0
 11 10  1  0  0  0  0
  1 11  2  0  0  0  0
M  END
> <ChemID>
100760

> <CAS>
492-38-6

> <Original_SMILES>
C=C(C(O)=O)c1ccccc1

> <preferred_name>
Benzeneacetic acid, .alpha.-methylene-

> <dsstox_substance_id>
DTXSID3075418

> <dsstox_compound_id>
DTXCID0040676

> <qc_level>
Public_High

> <Canonical_QSARr>
C=C(C(O)=O)C1C=CC=CC=1

> <InChI_Code_QSARr>
InChI=1S/C9H8O2/c1-7(9(10)11)8-5-3-2-4-6-8/h2-6H,1H2,(H,10,11)

> <InChI Key_QSARr>
ONPJWQSDZCGSQM-UHFFFAOYSA-N

> <Salt_Solvent>


> <Salt_Solvent_ID>
0

> <MPID>
100767

> <Tr_1_Tst_0>
1

> <Ready_Biodeg>
1.0

$$$$
Row746
  Mrv171c012251911052D          

 11 12  0  0  0  0            999 V2000
    2.0367    1.1759    0.0000 C   0  0  0  0  0  0  0  0  0  0  0  0
    2.7512    0.7634    0.0000 C   0  0  0  0  0  0  0  0  0  0  0  0
    2.7512   -0.0616    0.0000 C   0  0  0  0  0  0  0  0  0  0  0  0
    2.0837   -0.5465    0.0000 C   0  0  0  0  0  0  0  0  0  0  0  0
    2.3387   -1.3312    0.0000 C   0  0  0  0  0  0  0  0  0  0  0  0
    3.1637   -1.3312    0.0000 C   0  0  0  0  0  0  0  0  0  0  0  0
    3.4186   -0.5465    0.0000 N   0  0  0  0  0  0  0  0  0  0  0  0
    3.4656    1.1759    0.0000 C   0  0  0  0  0  0  0  0  0  0  0  0
    3.4656    2.0009    0.0000 C   0  0  0  0  0  0  0  0  0  0  0  0
    2.7512    2.4134    0.0000 C   0  0  0  0  0  0  0  0  0  0  0  0
    2.0367    2.0009    0.0000 N   0  0  0  0  0  0  0  0  0  0  0  0
  2  1  1  0  0  0  0
  2  3  1  0  0  0  0
  4  3  1  0  0  0  0
  5  4  1  0  0  0  0
  6  5  1  0  0  0  0
  7  6  1  0  0  0  0
  3  7  1  0  0  0  0
  8  2  2  0  0  0  0
  9  8  1  0  0  0  0
 10  9  2  0  0  0  0
 11 10  1  0  0  0  0
  1 11  2  0  0  0  0
M  END
> <ChemID>
100761

> <CAS>
494-97-3

> <Original_SMILES>
C1CC[C@H](N1)c1c[n]ccc1

> <preferred_name>
Pyridine, 3-(2S)-2-pyrrolidinyl-

> <dsstox_substance_id>
DTXSID7075420

> <dsstox_compound_id>
DTXCID8040690

> <qc_level>
Public_High

> <Canonical_QSARr>
C1CCC(N1)C1C=NC=CC=1

> <InChI_Code_QSARr>
InChI=1S/C9H12N2/c1-3-8(7-10-5-1)9-4-2-6-11-9/h1,3,5,7,9,11H,2,4,6H2

> <InChI Key_QSARr>
MYKUKUCHPMASKF-UHFFFAOYSA-N

> <Salt_Solvent>


> <Salt_Solvent_ID>
0

> <MPID>
100768

> <Tr_1_Tst_0>
1

> <Ready_Biodeg>
0.0

$$$$
Row747
  Mrv171c012251911052D          

 13 13  0  0  0  0            999 V2000
   -0.0009   -1.7783    0.0000 O   0  0  0  0  0  0  0  0  0  0  0  0
    0.7136   -1.3658    0.0000 C   0  0  0  0  0  0  0  0  0  0  0  0
    1.4280   -1.7783    0.0000 C   0  0  0  0  0  0  0  0  0  0  0  0
    2.1425   -1.3658    0.0000 N   0  0  0  0  0  0  0  0  0  0  0  0
    2.8570   -1.7783    0.0000 C   0  0  0  0  0  0  0  0  0  0  0  0
    3.5714   -1.3658    0.0000 C   0  0  0  0  0  0  0  0  0  0  0  0
    4.2859   -1.7783    0.0000 C   0  0  0  0  0  0  0  0  0  0  0  0
    5.0004   -1.3658    0.0000 C   0  0  0  0  0  0  0  0  0  0  0  0
    5.0004   -0.5408    0.0000 C   0  0  0  0  0  0  0  0  0  0  0  0
    4.2859   -0.1283    0.0000 C   0  0  0  0  0  0  0  0  0  0  0  0
    3.5714   -0.5408    0.0000 C   0  0  0  0  0  0  0  0  0  0  0  0
    2.8570   -2.6033    0.0000 O   0  0  0  0  0  0  0  0  0  0  0  0
    0.7136   -0.5408    0.0000 O   0  0  0  0  0  0  0  0  0  0  0  0
  1  2  1  0  0  0  0
  2  3  1  0  0  0  0
  3  4  1  0  0  0  0
  4  5  1  0  0  0  0
  5  6  1  0  0  0  0
  7  6  1  0  0  0  0
  8  7  2  0  0  0  0
  9  8  1  0  0  0  0
 10  9  2  0  0  0  0
 11 10  1  0  0  0  0
  6 11  2  0  0  0  0
  5 12  2  0  0  0  0
  2 13  2  0  0  0  0
M  END
> <ChemID>
100762

> <CAS>
495-69-2

> <Original_SMILES>
OC(=O)CNC(=O)c1ccccc1

> <preferred_name>
Hippuric acid

> <dsstox_substance_id>
DTXSID9046073

> <dsstox_compound_id>
DTXCID7026073

> <qc_level>
DSSTox_Low

> <Canonical_QSARr>
OC(=O)CNC(=O)C1C=CC=CC=1

> <InChI_Code_QSARr>
InChI=1S/C9H9NO3/c11-8(12)6-10-9(13)7-4-2-1-3-5-7/h1-5H,6H2,(H,10,13)(H,11,12)

> <InChI Key_QSARr>
QIAFMBKCNZACKA-UHFFFAOYSA-N

> <Salt_Solvent>


> <Salt_Solvent_ID>
0

> <MPID>
100769

> <Tr_1_Tst_0>
1

> <Ready_Biodeg>
1.0

$$$$
Row748
  Mrv171c012251911052D          

 12 12  0  0  0  0            999 V2000
    0.8335    0.0000    0.0000 C   0  0  0  0  0  0  0  0  0  0  0  0
    0.1191   -0.4125    0.0000 C   0  0  0  0  0  0  0  0  0  0  0  0
    0.1191   -1.2375    0.0000 O   0  0  0  0  0  0  0  0  0  0  0  0
   -0.5954    0.0000    0.0000 O   0  0  0  0  0  0  0  0  0  0  0  0
    1.5480   -0.4125    0.0000 C   0  0  0  0  0  0  0  0  0  0  0  0
    2.2625   -0.0000    0.0000 C   0  0  0  0  0  0  0  0  0  0  0  0
    2.2625    0.8250    0.0000 N   0  0  0  0  0  0  0  0  0  0  0  0
    1.5480    1.2375    0.0000 C   0  0  0  0  0  0  0  0  0  0  0  0
    1.5480    2.0625    0.0000 C   0  0  0  0  0  0  0  0  0  0  0  0
    0.8335    2.4750    0.0000 O   0  0  0  0  0  0  0  0  0  0  0  0
    2.2625    2.4750    0.0000 O   0  0  0  0  0  0  0  0  0  0  0  0
    0.8335    0.8250    0.0000 C   0  0  0  0  0  0  0  0  0  0  0  0
  1  2  1  0  0  0  0
  2  3  2  0  0  0  0
  2  4  1  0  0  0  0
  5  1  1  0  0  0  0
  6  5  2  0  0  0  0
  7  6  1  0  0  0  0
  8  7  2  0  0  0  0
  8  9  1  0  0  0  0
  9 10  2  0  0  0  0
  9 11  1  0  0  0  0
 12  8  1  0  0  0  0
  1 12  2  0  0  0  0
M  END
> <ChemID>
100763

> <CAS>
499-80-9

> <Original_SMILES>
OC(=O)c1cc(cc[n]1)C(O)=O

> <preferred_name>
2,4-Pyridinedicarboxylic acid

> <dsstox_substance_id>
DTXSID9060104

> <dsstox_compound_id>
DTXCID5040758

> <qc_level>
Public_High

> <Canonical_QSARr>
OC(=O)C1C=C(C=CN=1)C(O)=O

> <InChI_Code_QSARr>
InChI=1S/C7H5NO4/c9-6(10)4-1-2-8-5(3-4)7(11)12/h1-3H,(H,9,10)(H,11,12)

> <InChI Key_QSARr>
MJIVRKPEXXHNJT-UHFFFAOYSA-N

> <Salt_Solvent>


> <Salt_Solvent_ID>
0

> <MPID>
100770

> <Tr_1_Tst_0>
0

> <Ready_Biodeg>
1.0

$$$$
Row749
  Mrv171c012251911052D          

 12 12  0  0  0  0            999 V2000
    2.4432   -1.1344    0.0000 N   0  0  0  0  0  0  0  0  0  0  0  0
    1.7287   -0.7219    0.0000 C   0  0  0  0  0  0  0  0  0  0  0  0
    1.7287    0.1031    0.0000 C   0  0  0  0  0  0  0  0  0  0  0  0
    1.0142    0.5156    0.0000 O   0  0  0  0  0  0  0  0  0  0  0  0
    2.4432    0.5156    0.0000 O   0  0  0  0  0  0  0  0  0  0  0  0
    1.0142   -1.1344    0.0000 C   0  0  0  0  0  0  0  0  0  0  0  0
    1.0142   -1.9594    0.0000 C   0  0  0  0  0  0  0  0  0  0  0  0
    1.7287   -2.3719    0.0000 C   0  0  0  0  0  0  0  0  0  0  0  0
    2.4432   -1.9594    0.0000 C   0  0  0  0  0  0  0  0  0  0  0  0
    3.1576   -2.3719    0.0000 C   0  0  0  0  0  0  0  0  0  0  0  0
    3.8721   -1.9594    0.0000 O   0  0  0  0  0  0  0  0  0  0  0  0
    3.1576   -3.1969    0.0000 O   0  0  0  0  0  0  0  0  0  0  0  0
  2  1  1  0  0  0  0
  2  3  1  0  0  0  0
  3  4  1  0  0  0  0
  3  5  2  0  0  0  0
  6  2  2  0  0  0  0
  7  6  1  0  0  0  0
  8  7  2  0  0  0  0
  9  8  1  0  0  0  0
  1  9  2  0  0  0  0
  9 10  1  0  0  0  0
 10 11  1  0  0  0  0
 10 12  2  0  0  0  0
M  END
> <ChemID>
100764

> <CAS>
499-83-2

> <Original_SMILES>
OC(=O)c1cccc([n]1)C(O)=O

> <preferred_name>
2,6-Pyridinedicarboxylic acid

> <dsstox_substance_id>
DTXSID7022043

> <dsstox_compound_id>
DTXCID602043

> <qc_level>
DSSTox_Low

> <Canonical_QSARr>
OC(=O)C1=CC=CC(=N1)C(O)=O

> <InChI_Code_QSARr>
InChI=1S/C7H5NO4/c9-6(10)4-2-1-3-5(8-4)7(11)12/h1-3H,(H,9,10)(H,11,12)

> <InChI Key_QSARr>
WJJMNDUMQPNECX-UHFFFAOYSA-N

> <Salt_Solvent>


> <Salt_Solvent_ID>
0

> <MPID>
100771

> <Tr_1_Tst_0>
1

> <Ready_Biodeg>
1.0

$$$$
Row750
  Mrv171c012251911052D          

  8  8  0  0  0  0            999 V2000
    0.3917   -0.4677    0.0000 O   0  0  0  0  0  0  0  0  0  0  0  0
    0.2081   -1.2720    0.0000 C   0  0  0  0  0  0  0  0  0  0  0  0
    0.7225   -1.9170    0.0000 C   0  0  0  0  0  0  0  0  0  0  0  0
    1.5475   -1.9170    0.0000 C   0  0  0  0  0  0  0  0  0  0  0  0
    2.0619   -1.2720    0.0000 C   0  0  0  0  0  0  0  0  0  0  0  0
    1.8783   -0.4677    0.0000 C   0  0  0  0  0  0  0  0  0  0  0  0
    1.1350   -0.1098    0.0000 C   0  0  0  0  0  0  0  0  0  0  0  0
    1.1350    0.7152    0.0000 O   0  0  0  0  0  0  0  0  0  0  0  0
  2  1  1  0  0  0  0
  3  2  1  0  0  0  0
  4  3  1  0  0  0  0
  5  4  1  0  0  0  0
  6  5  1  0  0  0  0
  7  6  1  0  0  0  0
  1  7  1  0  0  0  0
  7  8  2  0  0  0  0
M  END
> <ChemID>
100765

> <CAS>
502-44-3

> <Original_SMILES>
O=C1CCCCCO1

> <preferred_name>
2-Oxepanone

> <dsstox_substance_id>
DTXSID4027159

> <dsstox_compound_id>
DTXCID007159

> <qc_level>
DSSTox_Low

> <Canonical_QSARr>
O=C1CCCCCO1

> <InChI_Code_QSARr>
InChI=1S/C6H10O2/c7-6-4-2-1-3-5-8-6/h1-5H2

> <InChI Key_QSARr>
PAPBSGBWRJIAAV-UHFFFAOYSA-N

> <Salt_Solvent>


> <Salt_Solvent_ID>
0

> <MPID>
100772

> <Tr_1_Tst_0>
1

> <Ready_Biodeg>
1.0

$$$$
Row751
  Mrv171c012251911052D          

  4  3  0  0  0  0            999 V2000
    0.8250    0.0000    0.0000 C   0  0  0  0  0  0  0  0  0  0  0  0
    1.6500   -0.0000    0.0000 C   0  0  0  0  0  0  0  0  0  0  0  0
    0.0000    0.0000    0.0000 C   0  0  0  0  0  0  0  0  0  0  0  0
   -0.8250   -0.0000    0.0000 C   0  0  0  0  0  0  0  0  0  0  0  0
  1  2  1  0  0  0  0
  1  3  3  0  0  0  0
  3  4  1  0  0  0  0
M  END
> <ChemID>
100766

> <CAS>
503-17-3

> <Original_SMILES>
CC#CC

> <preferred_name>
2-Butyne

> <dsstox_substance_id>
DTXSID3060116

> <dsstox_compound_id>
DTXCID2040812

> <qc_level>
Public_High

> <Canonical_QSARr>
CC#CC

> <InChI_Code_QSARr>
InChI=1S/C4H6/c1-3-4-2/h1-2H3

> <InChI Key_QSARr>
XNMQEEKYCVKGBD-UHFFFAOYSA-N

> <Salt_Solvent>


> <Salt_Solvent_ID>
0

> <MPID>
100773

> <Tr_1_Tst_0>
1

> <Ready_Biodeg>
0.0

$$$$
Row752
  Mrv171c012251911052D          

  7  6  0  0  0  0            999 V2000
    1.4937   -0.0525    0.0000 C   0  0  0  0  0  0  0  0  0  0  0  0
    1.9062    0.6620    0.0000 O   0  0  0  0  0  0  0  0  0  0  0  0
    0.6687   -0.0525    0.0000 O   0  0  0  0  0  0  0  0  0  0  0  0
    1.9062   -0.7670    0.0000 C   0  0  0  0  0  0  0  0  0  0  0  0
    1.4937   -1.4814    0.0000 C   0  0  0  0  0  0  0  0  0  0  0  0
    1.9062   -2.1959    0.0000 C   0  0  0  0  0  0  0  0  0  0  0  0
    0.6687   -1.4814    0.0000 C   0  0  0  0  0  0  0  0  0  0  0  0
  1  2  2  0  0  0  0
  1  3  1  0  0  0  0
  1  4  1  0  0  0  0
  4  5  1  0  0  0  0
  5  6  1  0  0  0  0
  5  7  1  0  0  0  0
M  END
> <ChemID>
100767

> <CAS>
503-74-2

> <Original_SMILES>
CC(C)CC(O)=O

> <preferred_name>
Isovaleric acid

> <dsstox_substance_id>
DTXSID5029182

> <dsstox_compound_id>
DTXCID309182

> <qc_level>
DSSTox_Low

> <Canonical_QSARr>
CC(C)CC(O)=O

> <InChI_Code_QSARr>
InChI=1S/C5H10O2/c1-4(2)3-5(6)7/h4H,3H2,1-2H3,(H,6,7)

> <InChI Key_QSARr>
GWYFCOCPABKNJV-UHFFFAOYSA-N

> <Salt_Solvent>


> <Salt_Solvent_ID>
0

> <MPID>
100774

> <Tr_1_Tst_0>
0

> <Ready_Biodeg>
1.0

$$$$
Row753
  Mrv171c012251911052D          

  8  8  0  0  0  0            999 V2000
    2.6850   -1.9683    0.0000 C   0  0  0  0  0  0  0  0  0  0  0  0
    1.9705   -1.5558    0.0000 C   0  0  0  0  0  0  0  0  0  0  0  0
    1.9705   -0.7308    0.0000 N   0  0  0  0  0  0  0  0  0  0  0  0
    1.2560   -0.3183    0.0000 C   0  0  0  0  0  0  0  0  0  0  0  0
    1.2560    0.5067    0.0000 C   0  0  0  0  0  0  0  0  0  0  0  0
    0.5416   -0.7308    0.0000 C   0  0  0  0  0  0  0  0  0  0  0  0
    0.5416   -1.5558    0.0000 C   0  0  0  0  0  0  0  0  0  0  0  0
    1.2560   -1.9683    0.0000 C   0  0  0  0  0  0  0  0  0  0  0  0
  1  2  1  0  0  0  0
  3  2  1  0  0  0  0
  4  3  1  0  0  0  0
  4  5  1  0  0  0  0
  6  4  1  0  0  0  0
  7  6  1  0  0  0  0
  8  7  1  0  0  0  0
  2  8  1  0  0  0  0
M  END
> <ChemID>
100768

> <CAS>
504-03-0

> <Original_SMILES>
C[C@@H]1CCC[C@H](C)N1

> <preferred_name>
cis-Nanophine

> <dsstox_substance_id>
DTXSID8048527

> <dsstox_compound_id>
DTXCID10197036

> <qc_level>
DSSTox_Low

> <Canonical_QSARr>
CC1CCCC(C)N1

> <InChI_Code_QSARr>
InChI=1S/C7H15N/c1-6-4-3-5-7(2)8-6/h6-8H,3-5H2,1-2H3

> <InChI Key_QSARr>
SDGKUVSVPIIUCF-UHFFFAOYSA-N

> <Salt_Solvent>


> <Salt_Solvent_ID>
0

> <MPID>
100775

> <Tr_1_Tst_0>
1

> <Ready_Biodeg>
0.0

$$$$
Row754
  Mrv171c012251911052D          

  9  9  0  0  0  0            999 V2000
    1.4289   -0.0000    0.0000 C   0  0  0  0  0  0  0  0  0  0  0  0
    2.1434   -0.4125    0.0000 C   0  0  0  0  0  0  0  0  0  0  0  0
    1.4289    0.8250    0.0000 C   0  0  0  0  0  0  0  0  0  0  0  0
    0.7145    1.2375    0.0000 C   0  0  0  0  0  0  0  0  0  0  0  0
    0.7145    2.0625    0.0000 O   0  0  0  0  0  0  0  0  0  0  0  0
   -0.0000    0.8250    0.0000 C   0  0  0  0  0  0  0  0  0  0  0  0
   -0.0000    0.0000    0.0000 C   0  0  0  0  0  0  0  0  0  0  0  0
   -0.7145   -0.4125    0.0000 O   0  0  0  0  0  0  0  0  0  0  0  0
    0.7145   -0.4125    0.0000 C   0  0  0  0  0  0  0  0  0  0  0  0
  1  2  1  0  0  0  0
  3  1  1  0  0  0  0
  4  3  2  0  0  0  0
  4  5  1  0  0  0  0
  6  4  1  0  0  0  0
  7  6  2  0  0  0  0
  7  8  1  0  0  0  0
  9  7  1  0  0  0  0
  1  9  2  0  0  0  0
M  END
> <ChemID>
100769

> <CAS>
504-15-4

> <Original_SMILES>
Cc1cc(O)cc(O)c1

> <preferred_name>
1,3-Benzenediol, 5-methyl-

> <dsstox_substance_id>
DTXSID2060123

> <dsstox_compound_id>
DTXCID0040830

> <qc_level>
Public_High

> <Canonical_QSARr>
CC1C=C(O)C=C(O)C=1

> <InChI_Code_QSARr>
InChI=1S/C7H8O2/c1-5-2-6(8)4-7(9)3-5/h2-4,8-9H,1H3

> <InChI Key_QSARr>
OIPPWFOQEKKFEE-UHFFFAOYSA-N

> <Salt_Solvent>


> <Salt_Solvent_ID>
0

> <MPID>
100776

> <Tr_1_Tst_0>
1

> <Ready_Biodeg>
0.0

$$$$
Row755
  Mrv171c012251911052D          

  7  7  0  0  0  0            999 V2000
    1.0664   -0.1221    0.0000 C   0  0  0  0  0  0  0  0  0  0  0  0
    1.0664    0.7029    0.0000 N   0  0  0  0  0  0  0  0  0  0  0  0
    0.3520   -0.5346    0.0000 C   0  0  0  0  0  0  0  0  0  0  0  0
    0.3520   -1.3596    0.0000 C   0  0  0  0  0  0  0  0  0  0  0  0
    1.0664   -1.7721    0.0000 N   0  0  0  0  0  0  0  0  0  0  0  0
    1.7809   -1.3596    0.0000 C   0  0  0  0  0  0  0  0  0  0  0  0
    1.7809   -0.5346    0.0000 C   0  0  0  0  0  0  0  0  0  0  0  0
  1  2  1  0  0  0  0
  3  1  1  0  0  0  0
  4  3  2  0  0  0  0
  5  4  1  0  0  0  0
  6  5  2  0  0  0  0
  7  6  1  0  0  0  0
  1  7  2  0  0  0  0
M  END
> <ChemID>
100770

> <CAS>
504-24-5

> <Original_SMILES>
Nc1cc[n]cc1

> <preferred_name>
4-Aminopyridine

> <dsstox_substance_id>
DTXSID0023870

> <dsstox_compound_id>
DTXCID003870

> <qc_level>
DSSTox_Low

> <Canonical_QSARr>
NC1C=CN=CC=1

> <InChI_Code_QSARr>
InChI=1S/C5H6N2/c6-5-1-3-7-4-2-5/h1-4H,(H2,6,7)

> <InChI Key_QSARr>
NUKYPUAOHBNCPY-UHFFFAOYSA-N

> <Salt_Solvent>


> <Salt_Solvent_ID>
0

> <MPID>
100777

> <Tr_1_Tst_0>
1

> <Ready_Biodeg>
0.0

$$$$
Row756
  Mrv171c012251911052D          

  7  7  0  0  0  0            999 V2000
    1.4153    0.7000    0.0000 N   0  0  0  0  0  0  0  0  0  0  0  0
    1.4153   -0.1250    0.0000 C   0  0  0  0  0  0  0  0  0  0  0  0
    0.7009   -0.5375    0.0000 N   0  0  0  0  0  0  0  0  0  0  0  0
    0.7009   -1.3625    0.0000 C   0  0  0  0  0  0  0  0  0  0  0  0
    1.4153   -1.7750    0.0000 C   0  0  0  0  0  0  0  0  0  0  0  0
    2.1298   -1.3625    0.0000 C   0  0  0  0  0  0  0  0  0  0  0  0
    2.1298   -0.5375    0.0000 C   0  0  0  0  0  0  0  0  0  0  0  0
  1  2  1  0  0  0  0
  3  2  1  0  0  0  0
  4  3  2  0  0  0  0
  5  4  1  0  0  0  0
  6  5  2  0  0  0  0
  7  6  1  0  0  0  0
  2  7  2  0  0  0  0
M  END
> <ChemID>
100771

> <CAS>
504-29-0

> <Original_SMILES>
Nc1cccc[n]1

> <preferred_name>
2-Aminopyridine

> <dsstox_substance_id>
DTXSID0024505

> <dsstox_compound_id>
DTXCID404505

> <qc_level>
DSSTox_Low

> <Canonical_QSARr>
NC1=CC=CC=N1

> <InChI_Code_QSARr>
InChI=1S/C5H6N2/c6-5-3-1-2-4-7-5/h1-4H,(H2,6,7)

> <InChI Key_QSARr>
ICSNLGPSRYBMBD-UHFFFAOYSA-N

> <Salt_Solvent>


> <Salt_Solvent_ID>
0

> <MPID>
100778

> <Tr_1_Tst_0>
0

> <Ready_Biodeg>
0.0

$$$$
Row757
  Mrv171c012251911052D          

 20 19  0  0  0  0            999 V2000
    7.9479    5.4138    0.0000 C   0  0  0  0  0  0  0  0  0  0  0  0
    7.2334    5.0013    0.0000 O   0  0  0  0  0  0  0  0  0  0  0  0
    7.9479    6.2388    0.0000 O   0  0  0  0  0  0  0  0  0  0  0  0
    8.6624    5.0013    0.0000 C   0  0  0  0  0  0  0  0  0  0  0  0
    9.3769    5.4138    0.0000 C   0  0  0  0  0  0  0  0  0  0  0  0
   10.0913    5.0013    0.0000 C   0  0  0  0  0  0  0  0  0  0  0  0
   10.8058    5.4138    0.0000 C   0  0  0  0  0  0  0  0  0  0  0  0
   11.5203    5.0013    0.0000 C   0  0  0  0  0  0  0  0  0  0  0  0
   12.2347    5.4138    0.0000 C   0  0  0  0  0  0  0  0  0  0  0  0
   12.9492    5.0013    0.0000 C   0  0  0  0  0  0  0  0  0  0  0  0
   13.6637    5.4138    0.0000 C   0  0  0  0  0  0  0  0  0  0  0  0
   14.3781    5.0013    0.0000 C   0  0  0  0  0  0  0  0  0  0  0  0
   15.0926    5.4138    0.0000 C   0  0  0  0  0  0  0  0  0  0  0  0
   15.8071    5.0013    0.0000 C   0  0  0  0  0  0  0  0  0  0  0  0
   16.5216    5.4138    0.0000 C   0  0  0  0  0  0  0  0  0  0  0  0
   17.2360    5.0013    0.0000 C   0  0  0  0  0  0  0  0  0  0  0  0
   17.9505    5.4138    0.0000 C   0  0  0  0  0  0  0  0  0  0  0  0
   18.6650    5.0013    0.0000 C   0  0  0  0  0  0  0  0  0  0  0  0
   19.3794    5.4138    0.0000 O   0  0  0  0  0  0  0  0  0  0  0  0
   18.6650    4.1763    0.0000 O   0  0  0  0  0  0  0  0  0  0  0  0
  1  2  2  0  0  0  0
  1  3  1  0  0  0  0
  1  4  1  0  0  0  0
  4  5  1  0  0  0  0
  5  6  1  0  0  0  0
  6  7  1  0  0  0  0
  7  8  1  0  0  0  0
  8  9  1  0  0  0  0
  9 10  1  0  0  0  0
 10 11  1  0  0  0  0
 11 12  1  0  0  0  0
 12 13  1  0  0  0  0
 13 14  1  0  0  0  0
 14 15  1  0  0  0  0
 15 16  1  0  0  0  0
 16 17  1  0  0  0  0
 17 18  1  0  0  0  0
 18 19  2  0  0  0  0
 18 20  1  0  0  0  0
M  END
> <ChemID>
100772

> <CAS>
505-54-4

> <Original_SMILES>
OC(=O)CCCCCCCCCCCCCCC(O)=O

> <preferred_name>
Hexadecanedioic acid

> <dsstox_substance_id>
DTXSID2060129

> <dsstox_compound_id>
DTXCID9040847

> <qc_level>
Public_High

> <Canonical_QSARr>
OC(=O)CCCCCCCCCCCCCCC(O)=O

> <InChI_Code_QSARr>
InChI=1S/C16H30O4/c17-15(18)13-11-9-7-5-3-1-2-4-6-8-10-12-14-16(19)20/h1-14H2,(H,17,18)(H,19,20)

> <InChI Key_QSARr>
QQHJDPROMQRDLA-UHFFFAOYSA-N

> <Salt_Solvent>


> <Salt_Solvent_ID>
0

> <MPID>
100779

> <Tr_1_Tst_0>
1

> <Ready_Biodeg>
1.0

$$$$
Row758
  Mrv171c012251911052D          

 27 26  0  0  0  0            999 V2000
    0.8174   -0.4091    0.0000 C   0  0  0  0  0  0  0  0  0  0  0  0
    0.1029    0.0034    0.0000 O   0  0  0  0  0  0  0  0  0  0  0  0
    1.5318    0.0034    0.0000 C   0  0  0  0  0  0  0  0  0  0  0  0
    2.2463   -0.4091    0.0000 C   0  0  0  0  0  0  0  0  0  0  0  0
    2.9608    0.0034    0.0000 C   0  0  0  0  0  0  0  0  0  0  0  0
    3.6752   -0.4091    0.0000 C   0  0  0  0  0  0  0  0  0  0  0  0
    4.3897    0.0034    0.0000 C   0  0  0  0  0  0  0  0  0  0  0  0
    5.1042   -0.4091    0.0000 C   0  0  0  0  0  0  0  0  0  0  0  0
    5.8187    0.0034    0.0000 C   0  0  0  0  0  0  0  0  0  0  0  0
    6.5331   -0.4091    0.0000 C   0  0  0  0  0  0  0  0  0  0  0  0
    7.2476    0.0034    0.0000 C   0  0  0  0  0  0  0  0  0  0  0  0
    7.9621   -0.4091    0.0000 C   0  0  0  0  0  0  0  0  0  0  0  0
    8.6765    0.0034    0.0000 C   0  0  0  0  0  0  0  0  0  0  0  0
    9.3910   -0.4091    0.0000 C   0  0  0  0  0  0  0  0  0  0  0  0
   10.1055    0.0034    0.0000 C   0  0  0  0  0  0  0  0  0  0  0  0
   10.8200   -0.4091    0.0000 C   0  0  0  0  0  0  0  0  0  0  0  0
   11.5344    0.0034    0.0000 C   0  0  0  0  0  0  0  0  0  0  0  0
   12.2489   -0.4091    0.0000 C   0  0  0  0  0  0  0  0  0  0  0  0
   12.9634    0.0034    0.0000 C   0  0  0  0  0  0  0  0  0  0  0  0
   13.6778   -0.4091    0.0000 C   0  0  0  0  0  0  0  0  0  0  0  0
   14.3923    0.0034    0.0000 C   0  0  0  0  0  0  0  0  0  0  0  0
   15.1068   -0.4091    0.0000 C   0  0  0  0  0  0  0  0  0  0  0  0
   15.8213    0.0034    0.0000 C   0  0  0  0  0  0  0  0  0  0  0  0
   16.5357   -0.4091    0.0000 C   0  0  0  0  0  0  0  0  0  0  0  0
   17.2502    0.0034    0.0000 C   0  0  0  0  0  0  0  0  0  0  0  0
   17.9647   -0.4091    0.0000 C   0  0  0  0  0  0  0  0  0  0  0  0
   18.6791    0.0034    0.0000 C   0  0  0  0  0  0  0  0  0  0  0  0
  1  2  1  0  0  0  0
  1  3  1  0  0  0  0
  3  4  1  0  0  0  0
  4  5  1  0  0  0  0
  5  6  1  0  0  0  0
  6  7  1  0  0  0  0
  7  8  1  0  0  0  0
  8  9  1  0  0  0  0
  9 10  1  0  0  0  0
 10 11  1  0  0  0  0
 11 12  1  0  0  0  0
 12 13  1  0  0  0  0
 13 14  1  0  0  0  0
 14 15  1  0  0  0  0
 15 16  1  0  0  0  0
 16 17  1  0  0  0  0
 17 18  1  0  0  0  0
 18 19  1  0  0  0  0
 19 20  1  0  0  0  0
 20 21  1  0  0  0  0
 21 22  1  0  0  0  0
 22 23  1  0  0  0  0
 23 24  1  0  0  0  0
 24 25  1  0  0  0  0
 25 26  1  0  0  0  0
 26 27  1  0  0  0  0
M  END
> <ChemID>
100773

> <CAS>
506-52-5

> <Original_SMILES>
CCCCCCCCCCCCCCCCCCCCCCCCCCO

> <preferred_name>
1-Hexacosanol

> <dsstox_substance_id>
DTXSID3027162

> <dsstox_compound_id>
DTXCID507162

> <qc_level>
DSSTox_Low

> <Canonical_QSARr>
CCCCCCCCCCCCCCCCCCCCCCCCCCO

> <InChI_Code_QSARr>
InChI=1S/C26H54O/c1-2-3-4-5-6-7-8-9-10-11-12-13-14-15-16-17-18-19-20-21-22-23-24-25-26-27/h27H,2-26H2,1H3

> <InChI Key_QSARr>
IRHTZOCLLONTOC-UHFFFAOYSA-N

> <Salt_Solvent>


> <Salt_Solvent_ID>
0

> <MPID>
100780

> <Tr_1_Tst_0>
1

> <Ready_Biodeg>
1.0

$$$$
Row759
  Mrv171c012251911052D          

  5  4  0  0  0  0            999 V2000
    0.8330   -1.6580    0.0000 C   0  0  0  0  0  0  0  0  0  0  0  0
    0.8330   -0.8330    0.0000 C   0  0  0  0  0  0  0  0  0  0  0  0
    0.8330   -0.0080    0.0000 Cl  0  0  0  0  0  0  0  0  0  0  0  0
    1.6580   -0.8330    0.0000 C   0  0  0  0  0  0  0  0  0  0  0  0
    0.0080   -0.8330    0.0000 C   0  0  0  0  0  0  0  0  0  0  0  0
  1  2  1  0  0  0  0
  2  3  1  0  0  0  0
  2  4  1  0  0  0  0
  2  5  1  0  0  0  0
M  END
> <ChemID>
100774

> <CAS>
507-20-0

> <Original_SMILES>
CC(C)(C)Cl

> <preferred_name>
t-Butylchloride

> <dsstox_substance_id>
DTXSID2023937

> <dsstox_compound_id>
DTXCID803937

> <qc_level>
DSSTox_High

> <Canonical_QSARr>
CC(C)(C)Cl

> <InChI_Code_QSARr>
InChI=1S/C4H9Cl/c1-4(2,3)5/h1-3H3

> <InChI Key_QSARr>
NBRKLOOSMBRFMH-UHFFFAOYSA-N

> <Salt_Solvent>


> <Salt_Solvent_ID>
0

> <MPID>
100781

> <Tr_1_Tst_0>
1

> <Ready_Biodeg>
0.0

$$$$
Row760
  Mrv171c012251911052D          

 21 22  0  0  0  0            999 V2000
    0.3563   -2.9393    0.0000 O   0  0  0  0  0  0  0  0  0  0  0  0
    1.1813   -2.9393    0.0000 C   0  0  0  0  0  0  0  0  0  0  0  0
    2.0063   -2.9393    0.0000 C   0  0  0  0  0  0  0  0  0  0  0  0
    2.4188   -3.6538    0.0000 O   0  0  0  0  0  0  0  0  0  0  0  0
    3.2438   -3.6538    0.0000 C   0  0  0  0  0  0  0  0  0  0  0  0
    3.6563   -4.3683    0.0000 C   0  0  0  0  0  0  0  0  0  0  0  0
    2.4188   -2.2249    0.0000 O   0  0  0  0  0  0  0  0  0  0  0  0
    1.1813   -2.1143    0.0000 C   0  0  0  0  0  0  0  0  0  0  0  0
    1.8958   -1.7018    0.0000 C   0  0  0  0  0  0  0  0  0  0  0  0
    1.8958   -0.8768    0.0000 C   0  0  0  0  0  0  0  0  0  0  0  0
    1.1813   -0.4643    0.0000 C   0  0  0  0  0  0  0  0  0  0  0  0
    1.1813    0.3607    0.0000 Cl  0  0  0  0  0  0  0  0  0  0  0  0
    0.4668   -0.8768    0.0000 C   0  0  0  0  0  0  0  0  0  0  0  0
    0.4668   -1.7018    0.0000 C   0  0  0  0  0  0  0  0  0  0  0  0
    1.1813   -3.7643    0.0000 C   0  0  0  0  0  0  0  0  0  0  0  0
    0.4668   -4.1768    0.0000 C   0  0  0  0  0  0  0  0  0  0  0  0
    0.4668   -5.0018    0.0000 C   0  0  0  0  0  0  0  0  0  0  0  0
    1.1813   -5.4143    0.0000 C   0  0  0  0  0  0  0  0  0  0  0  0
    1.1813   -6.2393    0.0000 Cl  0  0  0  0  0  0  0  0  0  0  0  0
    1.8958   -5.0018    0.0000 C   0  0  0  0  0  0  0  0  0  0  0  0
    1.8958   -4.1768    0.0000 C   0  0  0  0  0  0  0  0  0  0  0  0
  1  2  1  0  0  0  0
  2  3  1  0  0  0  0
  3  4  1  0  0  0  0
  4  5  1  0  0  0  0
  5  6  1  0  0  0  0
  3  7  2  0  0  0  0
  2  8  1  0  0  0  0
  9  8  1  0  0  0  0
 10  9  2  0  0  0  0
 11 10  1  0  0  0  0
 11 12  1  0  0  0  0
 13 11  2  0  0  0  0
 14 13  1  0  0  0  0
  8 14  2  0  0  0  0
  2 15  1  0  0  0  0
 16 15  1  0  0  0  0
 17 16  2  0  0  0  0
 18 17  1  0  0  0  0
 18 19  1  0  0  0  0
 20 18  2  0  0  0  0
 21 20  1  0  0  0  0
 15 21  2  0  0  0  0
M  END
> <ChemID>
100776

> <CAS>
510-15-6

> <Original_SMILES>
CCOC(=O)C(O)(c1ccc(Cl)cc1)c1ccc(Cl)cc1

> <preferred_name>
Chlorobenzilate

> <dsstox_substance_id>
DTXSID9020299

> <dsstox_compound_id>
DTXCID70299

> <qc_level>
DSSTox_Low

> <Canonical_QSARr>
CCOC(=O)C(O)(C1C=CC(Cl)=CC=1)C1C=CC(Cl)=CC=1

> <InChI_Code_QSARr>
InChI=1S/C16H14Cl2O3/c1-2-21-15(19)16(20,11-3-7-13(17)8-4-11)12-5-9-14(18)10-6-12/h3-10,20H,2H2,1H3

> <InChI Key_QSARr>
RAPBNVDSDCTNRC-UHFFFAOYSA-N

> <Salt_Solvent>


> <Salt_Solvent_ID>
0

> <MPID>
100783

> <Tr_1_Tst_0>
0

> <Ready_Biodeg>
0.0

$$$$
Row761
  Mrv171c012251911052D          

  8  7  0  0  0  0            999 V2000
    1.8301   -0.5244    0.0000 O   0  0  0  0  0  0  0  0  0  0  0  0
    1.4176   -1.2389    0.0000 P   0  0  0  0  0  0  0  0  0  0  0  0
    0.7031   -0.8264    0.0000 O   0  0  0  0  0  0  0  0  0  0  0  0
   -0.0114   -1.2389    0.0000 C   0  0  0  0  0  0  0  0  0  0  0  0
    2.1320   -1.6514    0.0000 O   0  0  0  0  0  0  0  0  0  0  0  0
    2.8465   -1.2389    0.0000 C   0  0  0  0  0  0  0  0  0  0  0  0
    1.0051   -1.9534    0.0000 O   0  0  0  0  0  0  0  0  0  0  0  0
    0.1801   -1.9534    0.0000 C   0  0  0  0  0  0  0  0  0  0  0  0
  1  2  2  0  0  0  0
  2  3  1  0  0  0  0
  3  4  1  0  0  0  0
  2  5  1  0  0  0  0
  5  6  1  0  0  0  0
  2  7  1  0  0  0  0
  7  8  1  0  0  0  0
M  END
> <ChemID>
100777

> <CAS>
512-56-1

> <Original_SMILES>
COP(=O)(OC)OC

> <preferred_name>
Trimethyl phosphate

> <dsstox_substance_id>
DTXSID1021403

> <dsstox_compound_id>
DTXCID101403

> <qc_level>
DSSTox_Low

> <Canonical_QSARr>
COP(=O)(OC)OC

> <InChI_Code_QSARr>
InChI=1S/C3H9O4P/c1-5-8(4,6-2)7-3/h1-3H3

> <InChI Key_QSARr>
WVLBCYQITXONBZ-UHFFFAOYSA-N

> <Salt_Solvent>


> <Salt_Solvent_ID>
0

> <MPID>
100784

> <Tr_1_Tst_0>
1

> <Ready_Biodeg>
0.0

$$$$
Row762
  Mrv171c012251911052D          

  6  5  0  0  0  0            999 V2000
    0.6113    0.3520    0.0000 C   0  0  0  0  0  0  0  0  0  0  0  0
    1.0238   -0.3625    0.0000 C   0  0  0  0  0  0  0  0  0  0  0  0
    1.8488   -0.3625    0.0000 O   0  0  0  0  0  0  0  0  0  0  0  0
    0.6113   -1.0769    0.0000 C   0  0  0  0  0  0  0  0  0  0  0  0
    1.0238   -1.7914    0.0000 O   0  0  0  0  0  0  0  0  0  0  0  0
   -0.2137   -1.0769    0.0000 C   0  0  0  0  0  0  0  0  0  0  0  0
  1  2  1  0  0  0  0
  2  3  1  0  0  0  0
  2  4  1  0  0  0  0
  4  5  1  0  0  0  0
  4  6  1  0  0  0  0
M  END
> <ChemID>
100778

> <CAS>
513-85-9

> <Original_SMILES>
CC(O)C(C)O

> <preferred_name>
2,3-Butanediol

> <dsstox_substance_id>
DTXSID8041321

> <dsstox_compound_id>
DTXCID6021321

> <qc_level>
DSSTox_High

> <Canonical_QSARr>
CC(O)C(C)O

> <InChI_Code_QSARr>
InChI=1S/C4H10O2/c1-3(5)4(2)6/h3-6H,1-2H3

> <InChI Key_QSARr>
OWBTYPJTUOEWEK-UHFFFAOYSA-N

> <Salt_Solvent>


> <Salt_Solvent_ID>
0

> <MPID>
100785

> <Tr_1_Tst_0>
1

> <Ready_Biodeg>
1.0

$$$$
Row763
  Mrv171c012251911052D          

 22 24  0  0  0  0            999 V2000
    0.0268    0.3170    0.0000 C   0  0  0  0  0  0  0  0  0  0  0  0
   -0.3857    1.0314    0.0000 C   0  0  0  0  0  0  0  0  0  0  0  0
    0.4393    1.0314    0.0000 C   0  0  0  0  0  0  0  0  0  0  0  0
    1.2643    1.0314    0.0000 C   0  0  0  0  0  0  0  0  0  0  0  0
    1.6768    0.3170    0.0000 C   0  0  0  0  0  0  0  0  0  0  0  0
    1.2643   -0.3975    0.0000 C   0  0  0  0  0  0  0  0  0  0  0  0
    2.0395   -0.6797    0.0000 C   0  0  0  0  0  0  0  0  0  0  0  0
    1.1210   -1.2100    0.0000 C   0  0  0  0  0  0  0  0  0  0  0  0
    0.3458   -1.4921    0.0000 O   0  0  0  0  0  0  0  0  0  0  0  0
    1.7530   -1.7403    0.0000 O   0  0  0  0  0  0  0  0  0  0  0  0
    0.4393   -0.3975    0.0000 C   0  0  0  0  0  0  0  0  0  0  0  0
    0.0268   -1.1120    0.0000 C   0  0  0  0  0  0  0  0  0  0  0  0
   -0.7982   -1.1120    0.0000 C   0  0  0  0  0  0  0  0  0  0  0  0
   -1.2107   -0.3975    0.0000 C   0  0  0  0  0  0  0  0  0  0  0  0
   -2.0357   -0.3975    0.0000 C   0  0  0  0  0  0  0  0  0  0  0  0
   -2.4482    0.3170    0.0000 C   0  0  0  0  0  0  0  0  0  0  0  0
   -3.2732    0.3170    0.0000 C   0  0  0  0  0  0  0  0  0  0  0  0
   -3.6857   -0.3975    0.0000 C   0  0  0  0  0  0  0  0  0  0  0  0
   -3.6857    1.0314    0.0000 C   0  0  0  0  0  0  0  0  0  0  0  0
   -2.0357    1.0314    0.0000 C   0  0  0  0  0  0  0  0  0  0  0  0
   -1.2107    1.0314    0.0000 C   0  0  0  0  0  0  0  0  0  0  0  0
   -0.7982    0.3170    0.0000 C   0  0  0  0  0  0  0  0  0  0  0  0
  1  2  1  0  0  0  0
  3  1  1  0  0  0  0
  4  3  1  0  0  0  0
  5  4  1  0  0  0  0
  6  5  1  0  0  0  0
  6  7  1  0  0  0  0
  6  8  1  0  0  0  0
  8  9  1  0  0  0  0
  8 10  2  0  0  0  0
 11  6  1  0  0  0  0
 11  1  1  0  0  0  0
 12 11  1  0  0  0  0
 13 12  1  0  0  0  0
 14 13  2  0  0  0  0
 14 15  1  0  0  0  0
 15 16  2  0  0  0  0
 16 17  1  0  0  0  0
 17 18  1  0  0  0  0
 17 19  1  0  0  0  0
 16 20  1  0  0  0  0
 20 21  1  0  0  0  0
 21 22  1  0  0  0  0
  1 22  1  0  0  0  0
 22 14  1  0  0  0  0
M  END
> <ChemID>
100779

> <CAS>
514-10-3

> <Original_SMILES>
CC(C)C1CC[C@H]2C(C=1)=CC[C@H]1[C@@](C)(CCC[C@]21C)C(O)=O

> <preferred_name>
Abietic acid

> <dsstox_substance_id>
DTXSID7022047

> <dsstox_compound_id>
DTXCID202047

> <qc_level>
DSSTox_Low

> <Canonical_QSARr>
CC(C)C1CCC2C(C=1)=CCC1C(C)(CCCC21C)C(O)=O

> <InChI_Code_QSARr>
InChI=1S/C20H30O2/c1-13(2)14-6-8-16-15(12-14)7-9-17-19(16,3)10-5-11-20(17,4)18(21)22/h7,12-13,16-17H,5-6,8-11H2,1-4H3,(H,21,22)

> <InChI Key_QSARr>
RSWGJHLUYNHPMX-UHFFFAOYSA-N

> <Salt_Solvent>


> <Salt_Solvent_ID>
0

> <MPID>
100786

> <Tr_1_Tst_0>
1

> <Ready_Biodeg>
0.0

$$$$
Row764
  Mrv171c012251911052D          

  9  9  0  0  0  0            999 V2000
    1.4001   -1.3102    0.0000 C   0  0  0  0  0  0  0  0  0  0  0  0
    1.6550   -2.0949    0.0000 C   0  0  0  0  0  0  0  0  0  0  0  0
    2.4800   -2.0949    0.0000 C   0  0  0  0  0  0  0  0  0  0  0  0
    2.7349   -1.3102    0.0000 O   0  0  0  0  0  0  0  0  0  0  0  0
    2.0675   -0.8253    0.0000 C   0  0  0  0  0  0  0  0  0  0  0  0
    2.0675   -0.0003    0.0000 O   0  0  0  0  0  0  0  0  0  0  0  0
    0.6154   -1.0553    0.0000 C   0  0  0  0  0  0  0  0  0  0  0  0
    0.0024   -1.6073    0.0000 C   0  0  0  0  0  0  0  0  0  0  0  0
    0.4439   -0.2483    0.0000 O   0  0  0  0  0  0  0  0  0  0  0  0
  2  1  1  0  0  0  0
  3  2  1  0  0  0  0
  4  3  1  0  0  0  0
  5  4  1  0  0  0  0
  1  5  1  0  0  0  0
  5  6  2  0  0  0  0
  1  7  1  0  0  0  0
  7  8  1  0  0  0  0
  7  9  2  0  0  0  0
M  END
> <ChemID>
100780

> <CAS>
517-23-7

> <Original_SMILES>
CC(=O)C1CCOC1=O

> <preferred_name>
3-Acetyldihydro-2(3H)-furanone

> <dsstox_substance_id>
DTXSID6044436

> <dsstox_compound_id>
DTXCID4024436

> <qc_level>
DSSTox_Low

> <Canonical_QSARr>
CC(=O)C1CCOC1=O

> <InChI_Code_QSARr>
InChI=1S/C6H8O3/c1-4(7)5-2-3-9-6(5)8/h5H,2-3H2,1H3

> <InChI Key_QSARr>
OMQHDIHZSDEIFH-UHFFFAOYSA-N

> <Salt_Solvent>


> <Salt_Solvent_ID>
0

> <MPID>
100787

> <Tr_1_Tst_0>
0

> <Ready_Biodeg>
1.0

$$$$
Row765
  Mrv171c012251911052D          

 12 12  0  0  0  0            999 V2000
    3.0115   -1.7755    0.0000 O   0  0  0  0  0  0  0  0  0  0  0  0
    2.2970   -1.3630    0.0000 C   0  0  0  0  0  0  0  0  0  0  0  0
    2.2970   -0.5380    0.0000 C   0  0  0  0  0  0  0  0  0  0  0  0
    1.5826   -0.1255    0.0000 C   0  0  0  0  0  0  0  0  0  0  0  0
    1.5826    0.6995    0.0000 C   0  0  0  0  0  0  0  0  0  0  0  0
    0.8681   -0.5380    0.0000 O   0  0  0  0  0  0  0  0  0  0  0  0
    0.8681   -1.3630    0.0000 C   0  0  0  0  0  0  0  0  0  0  0  0
    0.1536   -1.7755    0.0000 O   0  0  0  0  0  0  0  0  0  0  0  0
    1.5826   -1.7755    0.0000 C   0  0  0  0  0  0  0  0  0  0  0  0
    1.5826   -2.6005    0.0000 C   0  0  0  0  0  0  0  0  0  0  0  0
    2.2970   -3.0130    0.0000 C   0  0  0  0  0  0  0  0  0  0  0  0
    0.8681   -3.0130    0.0000 O   0  0  0  0  0  0  0  0  0  0  0  0
  1  2  2  0  0  0  0
  3  2  1  0  0  0  0
  4  3  2  0  0  0  0
  4  5  1  0  0  0  0
  6  4  1  0  0  0  0
  7  6  1  0  0  0  0
  7  8  2  0  0  0  0
  9  7  1  0  0  0  0
  2  9  1  0  0  0  0
  9 10  1  0  0  0  0
 10 11  1  0  0  0  0
 10 12  2  0  0  0  0
M  END
> <ChemID>
100781

> <CAS>
520-45-6

> <Original_SMILES>
CC(=O)C1C(=O)C=C(C)OC1=O

> <preferred_name>
Dehydroacetic acid

> <dsstox_substance_id>
DTXSID6020014

> <dsstox_compound_id>
DTXCID9014

> <qc_level>
DSSTox_Low

> <Canonical_QSARr>
CC(=O)C1C(=O)C=C(C)OC1=O

> <InChI_Code_QSARr>
InChI=1S/C8H8O4/c1-4-3-6(10)7(5(2)9)8(11)12-4/h3,7H,1-2H3

> <InChI Key_QSARr>
PGRHXDWITVMQBC-UHFFFAOYSA-N

> <Salt_Solvent>


> <Salt_Solvent_ID>
0

> <MPID>
100788

> <Tr_1_Tst_0>
1

> <Ready_Biodeg>
1.0

$$$$
Row766
  Mrv171c012251911052D          

 23 25  0  0  0  0            999 V2000
    1.9923   -2.4849    0.0000 C   0  0  0  0  0  0  0  0  0  0  0  0
    1.9923   -1.6599    0.0000 C   0  0  0  0  0  0  0  0  0  0  0  0
    1.2779   -1.2474    0.0000 O   0  0  0  0  0  0  0  0  0  0  0  0
    2.7068   -1.2474    0.0000 C   0  0  0  0  0  0  0  0  0  0  0  0
    3.4213   -1.6599    0.0000 C   0  0  0  0  0  0  0  0  0  0  0  0
    4.1358   -1.2474    0.0000 C   0  0  0  0  0  0  0  0  0  0  0  0
    4.8502   -1.6599    0.0000 C   0  0  0  0  0  0  0  0  0  0  0  0
    5.5647   -1.2474    0.0000 C   0  0  0  0  0  0  0  0  0  0  0  0
    6.2792   -1.6599    0.0000 C   0  0  0  0  0  0  0  0  0  0  0  0
    6.9936   -1.2474    0.0000 C   0  0  0  0  0  0  0  0  0  0  0  0
    3.4213   -2.4849    0.0000 C   0  0  0  0  0  0  0  0  0  0  0  0
    2.7068   -2.8974    0.0000 C   0  0  0  0  0  0  0  0  0  0  0  0
    2.7068   -3.7224    0.0000 O   0  0  0  0  0  0  0  0  0  0  0  0
    1.9923   -4.1349    0.0000 C   0  0  0  0  0  0  0  0  0  0  0  0
    2.5226   -4.7669    0.0000 C   0  0  0  0  0  0  0  0  0  0  0  0
    1.4620   -4.7669    0.0000 C   0  0  0  0  0  0  0  0  0  0  0  0
    1.2779   -3.7224    0.0000 C   0  0  0  0  0  0  0  0  0  0  0  0
    0.5634   -4.1349    0.0000 C   0  0  0  0  0  0  0  0  0  0  0  0
   -0.1511   -3.7224    0.0000 C   0  0  0  0  0  0  0  0  0  0  0  0
   -0.1511   -2.8974    0.0000 C   0  0  0  0  0  0  0  0  0  0  0  0
   -0.8655   -2.4849    0.0000 C   0  0  0  0  0  0  0  0  0  0  0  0
    0.5634   -2.4849    0.0000 C   0  0  0  0  0  0  0  0  0  0  0  0
    1.2779   -2.8974    0.0000 C   0  0  0  0  0  0  0  0  0  0  0  0
  2  1  1  0  0  0  0
  2  3  1  0  0  0  0
  4  2  2  0  0  0  0
  5  4  1  0  0  0  0
  5  6  1  0  0  0  0
  6  7  1  0  0  0  0
  7  8  1  0  0  0  0
  8  9  1  0  0  0  0
  9 10  1  0  0  0  0
 11  5  2  0  0  0  0
 12 11  1  0  0  0  0
 12  1  2  0  0  0  0
 13 12  1  0  0  0  0
 14 13  1  0  0  0  0
 14 15  1  0  0  0  0
 14 16  1  0  0  0  0
 17 14  1  0  0  0  0
 17 18  1  0  0  0  0
 18 19  2  0  0  0  0
 19 20  1  0  0  0  0
 20 21  1  0  0  0  0
 20 22  2  0  0  0  0
 22 23  1  0  0  0  0
  1 23  1  0  0  0  0
 23 17  2  0  0  0  0
M  END
> <ChemID>
100782

> <CAS>
521-35-7

> <Original_SMILES>
Cc1ccc2c(c1)-c1c(O)cc(CCCCC)cc1OC2(C)C

> <preferred_name>
Cannabinol

> <dsstox_substance_id>
DTXSID3048996

> <dsstox_compound_id>
DTXCID3028922

> <qc_level>
DSSTox_Low

> <Canonical_QSARr>
CC1C=CC2=C(C=1)C1C(O)=CC(CCCCC)=CC=1OC2(C)C

> <InChI_Code_QSARr>
InChI=1S/C21H26O2/c1-5-6-7-8-15-12-18(22)20-16-11-14(2)9-10-17(16)21(3,4)23-19(20)13-15/h9-13,22H,5-8H2,1-4H3

> <InChI Key_QSARr>
VBGLYOIFKLUMQG-UHFFFAOYSA-N

> <Salt_Solvent>


> <Salt_Solvent_ID>
0

> <MPID>
100789

> <Tr_1_Tst_0>
1

> <Ready_Biodeg>
1.0

$$$$
Row767
  Mrv171c012251911052D          

  9  9  0  0  0  0            999 V2000
    2.1436   -1.2419    0.0000 C   0  0  0  0  0  0  0  0  0  0  0  0
    2.8581   -0.8294    0.0000 C   0  0  0  0  0  0  0  0  0  0  0  0
    1.4292   -0.8294    0.0000 C   0  0  0  0  0  0  0  0  0  0  0  0
    1.4292   -0.0044    0.0000 C   0  0  0  0  0  0  0  0  0  0  0  0
    0.7147   -1.2419    0.0000 C   0  0  0  0  0  0  0  0  0  0  0  0
    0.0002   -0.8294    0.0000 C   0  0  0  0  0  0  0  0  0  0  0  0
    0.7147   -2.0669    0.0000 C   0  0  0  0  0  0  0  0  0  0  0  0
    1.4292   -2.4794    0.0000 C   0  0  0  0  0  0  0  0  0  0  0  0
    2.1436   -2.0669    0.0000 C   0  0  0  0  0  0  0  0  0  0  0  0
  1  2  1  0  0  0  0
  3  1  1  0  0  0  0
  3  4  1  0  0  0  0
  5  3  2  0  0  0  0
  5  6  1  0  0  0  0
  7  5  1  0  0  0  0
  8  7  2  0  0  0  0
  9  8  1  0  0  0  0
  1  9  2  0  0  0  0
M  END
> <ChemID>
100783

> <CAS>
526-73-8

> <Original_SMILES>
Cc1c(C)cccc1C

> <preferred_name>
1,2,3-Trimethylbenzene

> <dsstox_substance_id>
DTXSID8047769

> <dsstox_compound_id>
DTXCID7027750

> <qc_level>
DSSTox_Low

> <Canonical_QSARr>
CC1C=CC=C(C)C=1C

> <InChI_Code_QSARr>
InChI=1S/C9H12/c1-7-5-4-6-8(2)9(7)3/h4-6H,1-3H3

> <InChI Key_QSARr>
FYGHSUNMUKGBRK-UHFFFAOYSA-N

> <Salt_Solvent>


> <Salt_Solvent_ID>
0

> <MPID>
100790

> <Tr_1_Tst_0>
1

> <Ready_Biodeg>
0.0

$$$$
Row768
  Mrv171c012251911052D          

 10  9  0  0  0  0            999 V2000
    0.7154   -0.8345    0.0000 C   0  0  0  0  0  0  0  0  0  0  0  0
    0.0010   -1.2470    0.0000 O   0  0  0  0  0  0  0  0  0  0  0  0
    0.7154   -0.0095    0.0000 O   0  0  0  0  0  0  0  0  0  0  0  0
    1.4299   -1.2470    0.0000 C   0  0  0  0  0  0  0  0  0  0  0  0
    1.4299   -2.0720    0.0000 Br  0  0  0  0  0  0  0  0  0  0  0  0
    2.1444   -0.8345    0.0000 C   0  0  0  0  0  0  0  0  0  0  0  0
    2.1444   -0.0095    0.0000 Br  0  0  0  0  0  0  0  0  0  0  0  0
    2.8589   -1.2470    0.0000 C   0  0  0  0  0  0  0  0  0  0  0  0
    3.5733   -0.8345    0.0000 O   0  0  0  0  0  0  0  0  0  0  0  0
    2.8589   -2.0720    0.0000 O   0  0  0  0  0  0  0  0  0  0  0  0
  1  2  2  0  0  0  0
  1  3  1  0  0  0  0
  1  4  1  0  0  0  0
  4  5  1  0  0  0  0
  4  6  1  0  0  0  0
  6  7  1  0  0  0  0
  6  8  1  0  0  0  0
  8  9  2  0  0  0  0
  8 10  1  0  0  0  0
M  END
> <ChemID>
100784

> <CAS>
526-78-3

> <Original_SMILES>
OC(=O)C(Br)C(Br)C(O)=O

> <preferred_name>


> <dsstox_substance_id>
DTXSID00862120

> <dsstox_compound_id>
DTXCID10810930

> <qc_level>


> <Canonical_QSARr>
OC(=O)C(Br)C(Br)C(O)=O

> <InChI_Code_QSARr>
InChI=1S/C4H4Br2O4/c5-1(3(7)8)2(6)4(9)10/h1-2H,(H,7,8)(H,9,10)

> <InChI Key_QSARr>
FJWGRXKOBIVTFA-UHFFFAOYSA-N

> <Salt_Solvent>


> <Salt_Solvent_ID>
0

> <MPID>
100791

> <Tr_1_Tst_0>
0

> <Ready_Biodeg>
0.0

$$$$
Row769
  Mrv171c012251911052D          

 12 12  0  0  0  0            999 V2000
    2.1378   -1.2352    0.0000 C   0  0  0  0  0  0  0  0  0  0  0  0
    2.8523   -0.8227    0.0000 N   0  0  0  0  0  0  0  0  0  0  0  0
    1.4233   -0.8227    0.0000 C   0  0  0  0  0  0  0  0  0  0  0  0
    1.4233    0.0023    0.0000 Cl  0  0  0  0  0  0  0  0  0  0  0  0
    0.7089   -1.2352    0.0000 C   0  0  0  0  0  0  0  0  0  0  0  0
   -0.0056   -0.8227    0.0000 Cl  0  0  0  0  0  0  0  0  0  0  0  0
    0.7089   -2.0602    0.0000 C   0  0  0  0  0  0  0  0  0  0  0  0
   -0.0056   -2.4727    0.0000 Cl  0  0  0  0  0  0  0  0  0  0  0  0
    1.4233   -2.4727    0.0000 C   0  0  0  0  0  0  0  0  0  0  0  0
    1.4233   -3.2977    0.0000 Cl  0  0  0  0  0  0  0  0  0  0  0  0
    2.1378   -2.0602    0.0000 C   0  0  0  0  0  0  0  0  0  0  0  0
    2.8523   -2.4727    0.0000 Cl  0  0  0  0  0  0  0  0  0  0  0  0
  1  2  1  0  0  0  0
  3  1  1  0  0  0  0
  3  4  1  0  0  0  0
  5  3  2  0  0  0  0
  5  6  1  0  0  0  0
  7  5  1  0  0  0  0
  7  8  1  0  0  0  0
  9  7  2  0  0  0  0
  9 10  1  0  0  0  0
 11  9  1  0  0  0  0
  1 11  2  0  0  0  0
 11 12  1  0  0  0  0
M  END
> <ChemID>
100785

> <CAS>
527-20-8

> <Original_SMILES>
Nc1c(Cl)c(Cl)c(Cl)c(Cl)c1Cl

> <preferred_name>
Pentachloroaniline

> <dsstox_substance_id>
DTXSID4037584

> <dsstox_compound_id>
DTXCID2017584

> <qc_level>
DSSTox_Low

> <Canonical_QSARr>
NC1C(Cl)=C(Cl)C(Cl)=C(Cl)C=1Cl

> <InChI_Code_QSARr>
InChI=1S/C6H2Cl5N/c7-1-2(8)4(10)6(12)5(11)3(1)9/h12H2

> <InChI Key_QSARr>
KHCZSJXTDDHLGJ-UHFFFAOYSA-N

> <Salt_Solvent>


> <Salt_Solvent_ID>
0

> <MPID>
100792

> <Tr_1_Tst_0>
1

> <Ready_Biodeg>
0.0

$$$$
Row770
  Mrv171c012251911052D          

 10 10  0  0  0  0            999 V2000
    3.1010   -0.6863    0.0000 O   0  0  0  0  0  0  0  0  0  0  0  0
    2.3865   -1.0988    0.0000 C   0  0  0  0  0  0  0  0  0  0  0  0
    1.6721   -0.6863    0.0000 C   0  0  0  0  0  0  0  0  0  0  0  0
    1.6721    0.1387    0.0000 C   0  0  0  0  0  0  0  0  0  0  0  0
    0.9576   -1.0988    0.0000 C   0  0  0  0  0  0  0  0  0  0  0  0
    0.9576   -1.9238    0.0000 C   0  0  0  0  0  0  0  0  0  0  0  0
    0.2431   -2.3363    0.0000 C   0  0  0  0  0  0  0  0  0  0  0  0
    1.6721   -2.3363    0.0000 C   0  0  0  0  0  0  0  0  0  0  0  0
    2.3865   -1.9238    0.0000 C   0  0  0  0  0  0  0  0  0  0  0  0
    3.1010   -2.3363    0.0000 C   0  0  0  0  0  0  0  0  0  0  0  0
  1  2  1  0  0  0  0
  3  2  1  0  0  0  0
  3  4  1  0  0  0  0
  5  3  2  0  0  0  0
  6  5  1  0  0  0  0
  6  7  1  0  0  0  0
  8  6  2  0  0  0  0
  9  8  1  0  0  0  0
  2  9  2  0  0  0  0
  9 10  1  0  0  0  0
M  END
> <ChemID>
100786

> <CAS>
527-60-6

> <Original_SMILES>
Cc1cc(C)c(O)c(C)c1

> <preferred_name>
2,4,6-Trimethylphenol

> <dsstox_substance_id>
DTXSID7022049

> <dsstox_compound_id>
DTXCID002049

> <qc_level>
DSSTox_Low

> <Canonical_QSARr>
CC1C=C(C)C=C(C)C=1O

> <InChI_Code_QSARr>
InChI=1S/C9H12O/c1-6-4-7(2)9(10)8(3)5-6/h4-5,10H,1-3H3

> <InChI Key_QSARr>
BPRYUXCVCCNUFE-UHFFFAOYSA-N

> <Salt_Solvent>


> <Salt_Solvent_ID>
0

> <MPID>
100793

> <Tr_1_Tst_0>
1

> <Ready_Biodeg>
0.0

$$$$
Row771
  Mrv171c012251911052D          

 10 10  0  0  0  0            999 V2000
    0.2847   -2.5557    0.0000 C   0  0  0  0  0  0  0  0  0  0  0  0
    0.9992   -2.9682    0.0000 C   0  0  0  0  0  0  0  0  0  0  0  0
    1.7136   -2.5557    0.0000 C   0  0  0  0  0  0  0  0  0  0  0  0
    1.7136   -1.7307    0.0000 C   0  0  0  0  0  0  0  0  0  0  0  0
    0.9992   -1.3182    0.0000 C   0  0  0  0  0  0  0  0  0  0  0  0
    0.9992   -0.4932    0.0000 C   0  0  0  0  0  0  0  0  0  0  0  0
    0.2847   -0.0807    0.0000 C   0  0  0  0  0  0  0  0  0  0  0  0
    1.7136   -0.0807    0.0000 C   0  0  0  0  0  0  0  0  0  0  0  0
    0.2847   -1.7307    0.0000 C   0  0  0  0  0  0  0  0  0  0  0  0
   -0.4298   -1.3182    0.0000 C   0  0  0  0  0  0  0  0  0  0  0  0
  2  1  2  0  0  0  0
  3  2  1  0  0  0  0
  4  3  2  0  0  0  0
  5  4  1  0  0  0  0
  5  6  1  0  0  0  0
  6  7  1  0  0  0  0
  6  8  1  0  0  0  0
  9  5  2  0  0  0  0
  1  9  1  0  0  0  0
  9 10  1  0  0  0  0
M  END
> <ChemID>
100787

> <CAS>
527-84-4

> <Original_SMILES>
Cc1ccccc1C(C)C

> <preferred_name>
1-Methyl-2-(propan-2-yl)benzene

> <dsstox_substance_id>
DTXSID1052165

> <dsstox_compound_id>
DTXCID1030735

> <qc_level>
DSSTox_Low

> <Canonical_QSARr>
CC1C=CC=CC=1C(C)C

> <InChI_Code_QSARr>
InChI=1S/C10H14/c1-8(2)10-7-5-4-6-9(10)3/h4-8H,1-3H3

> <InChI Key_QSARr>
WWRCMNKATXZARA-UHFFFAOYSA-N

> <Salt_Solvent>


> <Salt_Solvent_ID>
0

> <MPID>
100794

> <Tr_1_Tst_0>
1

> <Ready_Biodeg>
0.0

$$$$
Row772
  Mrv171c012251911052D          

 12 12  0  0  0  0            999 V2000
    0.6379   -0.3820    0.0000 O   0  5  0  0  0  0  0  0  0  0  0  0
    0.6379   -1.2070    0.0000 N   0  3  0  0  0  0  0  0  0  0  0  0
    1.3523   -1.6195    0.0000 C   0  0  0  0  0  0  0  0  0  0  0  0
    1.3523   -2.4445    0.0000 C   0  0  0  0  0  0  0  0  0  0  0  0
    2.0668   -2.8570    0.0000 C   0  0  0  0  0  0  0  0  0  0  0  0
    2.7813   -2.4445    0.0000 C   0  0  0  0  0  0  0  0  0  0  0  0
    2.7813   -1.6195    0.0000 C   0  0  0  0  0  0  0  0  0  0  0  0
    2.0668   -1.2070    0.0000 C   0  0  0  0  0  0  0  0  0  0  0  0
    2.0668   -0.3820    0.0000 N   0  3  0  0  0  0  0  0  0  0  0  0
    1.3523    0.0305    0.0000 O   0  5  0  0  0  0  0  0  0  0  0  0
    2.7813    0.0305    0.0000 O   0  0  0  0  0  0  0  0  0  0  0  0
   -0.0766   -1.6195    0.0000 O   0  0  0  0  0  0  0  0  0  0  0  0
  1  2  1  0  0  0  0
  2  3  1  0  0  0  0
  4  3  1  0  0  0  0
  5  4  2  0  0  0  0
  6  5  1  0  0  0  0
  7  6  2  0  0  0  0
  8  7  1  0  0  0  0
  3  8  2  0  0  0  0
  8  9  1  0  0  0  0
  9 10  1  0  0  0  0
  9 11  2  0  0  0  0
  2 12  2  0  0  0  0
M  CHG  4   1  -1   2   1   9   1  10  -1
M  END
> <ChemID>
100788

> <CAS>
528-29-0

> <Original_SMILES>
[O-][N+](=O)c1ccccc1[N+]([O-])=O

> <preferred_name>
1,2-Dinitrobenzene

> <dsstox_substance_id>
DTXSID4024066

> <dsstox_compound_id>
DTXCID604066

> <qc_level>
DSSTox_Low

> <Canonical_QSARr>
[O-][N+](=O)C1C=CC=CC=1[N+]([O-])=O

> <InChI_Code_QSARr>
InChI=1S/C6H4N2O4/c9-7(10)5-3-1-2-4-6(5)8(11)12/h1-4H

> <InChI Key_QSARr>
IZUKQUVSCNEFMJ-UHFFFAOYSA-N

> <Salt_Solvent>


> <Salt_Solvent_ID>
0

> <MPID>
100795

> <Tr_1_Tst_0>
0

> <Ready_Biodeg>
0.0

$$$$
Row773
  Mrv171c012251911052D          

 11 12  0  0  0  0            999 V2000
   -0.0000   -2.4750    0.0000 S   0  0  0  0  0  0  0  0  0  0  0  0
   -0.0000   -1.6500    0.0000 C   0  0  0  0  0  0  0  0  0  0  0  0
   -0.7145   -1.2375    0.0000 C   0  0  0  0  0  0  0  0  0  0  0  0
   -0.7145   -0.4125    0.0000 C   0  0  0  0  0  0  0  0  0  0  0  0
   -0.0000    0.0000    0.0000 C   0  0  0  0  0  0  0  0  0  0  0  0
    0.7145   -0.4125    0.0000 C   0  0  0  0  0  0  0  0  0  0  0  0
    1.4289    0.0000    0.0000 C   0  0  0  0  0  0  0  0  0  0  0  0
    2.1434   -0.4125    0.0000 C   0  0  0  0  0  0  0  0  0  0  0  0
    2.1434   -1.2375    0.0000 C   0  0  0  0  0  0  0  0  0  0  0  0
    1.4289   -1.6500    0.0000 C   0  0  0  0  0  0  0  0  0  0  0  0
    0.7145   -1.2375    0.0000 C   0  0  0  0  0  0  0  0  0  0  0  0
  1  2  1  0  0  0  0
  3  2  2  0  0  0  0
  4  3  1  0  0  0  0
  5  4  2  0  0  0  0
  6  5  1  0  0  0  0
  6  7  2  0  0  0  0
  7  8  1  0  0  0  0
  8  9  2  0  0  0  0
  9 10  1  0  0  0  0
 10 11  2  0  0  0  0
  2 11  1  0  0  0  0
 11  6  1  0  0  0  0
M  END
> <ChemID>
100789

> <CAS>
529-36-2

> <Original_SMILES>
Sc1cccc2ccccc21

> <preferred_name>
1-Naphthalenethiol

> <dsstox_substance_id>
DTXSID6060185

> <dsstox_compound_id>
DTXCID3041320

> <qc_level>
Public_High

> <Canonical_QSARr>
SC1=CC=CC2=CC=CC=C21

> <InChI_Code_QSARr>
InChI=1S/C10H8S/c11-10-7-3-5-8-4-1-2-6-9(8)10/h1-7,11H

> <InChI Key_QSARr>
SEXOVMIIVBKGGM-UHFFFAOYSA-N

> <Salt_Solvent>


> <Salt_Solvent_ID>
0

> <MPID>
100796

> <Tr_1_Tst_0>
1

> <Ready_Biodeg>
0.0

$$$$
Row774
  Mrv171c012251911052D          

 14 14  0  0  0  0            999 V2000
    2.9599    0.8839    0.0000 C   0  0  0  0  0  0  0  0  0  0  0  0
    2.2455    1.2964    0.0000 O   0  0  0  0  0  0  0  0  0  0  0  0
    1.5310    0.8839    0.0000 C   0  0  0  0  0  0  0  0  0  0  0  0
    0.8165    1.2964    0.0000 C   0  0  0  0  0  0  0  0  0  0  0  0
    0.8165    2.1214    0.0000 O   0  0  0  0  0  0  0  0  0  0  0  0
    0.1021    0.8839    0.0000 C   0  0  0  0  0  0  0  0  0  0  0  0
   -0.6124    1.2964    0.0000 O   0  0  0  0  0  0  0  0  0  0  0  0
   -1.3269    0.8839    0.0000 C   0  0  0  0  0  0  0  0  0  0  0  0
    0.1021    0.0589    0.0000 C   0  0  0  0  0  0  0  0  0  0  0  0
    0.8165   -0.3536    0.0000 C   0  0  0  0  0  0  0  0  0  0  0  0
    0.8165   -1.1786    0.0000 C   0  0  0  0  0  0  0  0  0  0  0  0
    1.5310   -1.5911    0.0000 O   0  0  0  0  0  0  0  0  0  0  0  0
    0.1021   -1.5911    0.0000 O   0  0  0  0  0  0  0  0  0  0  0  0
    1.5310    0.0589    0.0000 C   0  0  0  0  0  0  0  0  0  0  0  0
  1  2  1  0  0  0  0
  2  3  1  0  0  0  0
  4  3  1  0  0  0  0
  4  5  1  0  0  0  0
  6  4  2  0  0  0  0
  6  7  1  0  0  0  0
  7  8  1  0  0  0  0
  9  6  1  0  0  0  0
 10  9  2  0  0  0  0
 10 11  1  0  0  0  0
 11 12  1  0  0  0  0
 11 13  2  0  0  0  0
 14 10  1  0  0  0  0
  3 14  2  0  0  0  0
M  END
> <ChemID>
100790

> <CAS>
530-57-4

> <Original_SMILES>
COc1cc(cc(OC)c1O)C(O)=O

> <preferred_name>
Syringic acid

> <dsstox_substance_id>
DTXSID0060191

> <dsstox_compound_id>
DTXCID2041337

> <qc_level>
Public_High

> <Canonical_QSARr>
COC1=CC(=CC(OC)=C1O)C(O)=O

> <InChI_Code_QSARr>
InChI=1S/C9H10O5/c1-13-6-3-5(9(11)12)4-7(14-2)8(6)10/h3-4,10H,1-2H3,(H,11,12)

> <InChI Key_QSARr>
JMSVCTWVEWCHDZ-UHFFFAOYSA-N

> <Salt_Solvent>


> <Salt_Solvent_ID>
0

> <MPID>
100797

> <Tr_1_Tst_0>
1

> <Ready_Biodeg>
1.0

$$$$
Row775
  Mrv171c012251911052D          

 17 17  0  0  0  0            999 V2000
    1.9237   -1.7675    0.0000 C   0  0  0  0  0  0  0  0  0  0  0  0
    2.6381   -1.3550    0.0000 C   0  0  0  0  0  0  0  0  0  0  0  0
    3.3526   -1.7675    0.0000 O   0  0  0  0  0  0  0  0  0  0  0  0
    4.0671   -1.3550    0.0000 C   0  0  0  0  0  0  0  0  0  0  0  0
    4.7816   -1.7675    0.0000 C   0  0  0  0  0  0  0  0  0  0  0  0
    5.4960   -1.3550    0.0000 C   0  0  0  0  0  0  0  0  0  0  0  0
    6.2105   -1.7675    0.0000 O   0  0  0  0  0  0  0  0  0  0  0  0
    6.9250   -1.3550    0.0000 C   0  0  0  0  0  0  0  0  0  0  0  0
    7.6394   -1.7675    0.0000 O   0  0  0  0  0  0  0  0  0  0  0  0
    6.9250   -0.5300    0.0000 N   0  0  0  0  0  0  0  0  0  0  0  0
    4.7816   -2.5925    0.0000 O   0  0  0  0  0  0  0  0  0  0  0  0
    2.6381   -0.5300    0.0000 C   0  0  0  0  0  0  0  0  0  0  0  0
    1.9237   -0.1175    0.0000 C   0  0  0  0  0  0  0  0  0  0  0  0
    1.2092   -0.5300    0.0000 C   0  0  0  0  0  0  0  0  0  0  0  0
    1.2092   -1.3550    0.0000 C   0  0  0  0  0  0  0  0  0  0  0  0
    1.9237   -2.5925    0.0000 O   0  0  0  0  0  0  0  0  0  0  0  0
    1.2092   -3.0050    0.0000 C   0  0  0  0  0  0  0  0  0  0  0  0
  2  1  1  0  0  0  0
  2  3  1  0  0  0  0
  3  4  1  0  0  0  0
  4  5  1  0  0  0  0
  5  6  1  0  0  0  0
  6  7  1  0  0  0  0
  7  8  1  0  0  0  0
  8  9  2  0  0  0  0
  8 10  1  0  0  0  0
  5 11  1  0  0  0  0
 12  2  2  0  0  0  0
 13 12  1  0  0  0  0
 14 13  2  0  0  0  0
 15 14  1  0  0  0  0
  1 15  2  0  0  0  0
  1 16  1  0  0  0  0
 16 17  1  0  0  0  0
M  END
> <ChemID>
100791

> <CAS>
532-03-6

> <Original_SMILES>
COc1ccccc1OCC(O)COC(N)=O

> <preferred_name>
Methocarbamol

> <dsstox_substance_id>
DTXSID6023286

> <dsstox_compound_id>
DTXCID503286

> <qc_level>
DSSTox_Low

> <Canonical_QSARr>
COC1=CC=CC=C1OCC(O)COC(N)=O

> <InChI_Code_QSARr>
InChI=1S/C11H15NO5/c1-15-9-4-2-3-5-10(9)16-6-8(13)7-17-11(12)14/h2-5,8,13H,6-7H2,1H3,(H2,12,14)

> <InChI Key_QSARr>
GNXFOGHNGIVQEH-UHFFFAOYSA-N

> <Salt_Solvent>


> <Salt_Solvent_ID>
0

> <MPID>
100798

> <Tr_1_Tst_0>
1

> <Ready_Biodeg>
0.0

$$$$
Row776
  Mrv171c012251911052D          

  9  9  0  0  0  0            999 V2000
    0.5311    1.4208    0.0000 O   0  0  0  0  0  0  0  0  0  0  0  0
   -0.1833    1.0083    0.0000 C   0  0  0  0  0  0  0  0  0  0  0  0
   -0.1833    0.1833    0.0000 C   0  0  0  0  0  0  0  0  0  0  0  0
   -0.8978   -0.2292    0.0000 C   0  0  0  0  0  0  0  0  0  0  0  0
   -0.8978   -1.0542    0.0000 C   0  0  0  0  0  0  0  0  0  0  0  0
   -0.1833   -1.4667    0.0000 C   0  0  0  0  0  0  0  0  0  0  0  0
    0.5311   -1.0542    0.0000 C   0  0  0  0  0  0  0  0  0  0  0  0
    0.5311   -0.2292    0.0000 C   0  0  0  0  0  0  0  0  0  0  0  0
   -0.8978    1.4208    0.0000 O   0  0  0  0  0  0  0  0  0  0  0  0
  1  2  1  0  0  0  0
  2  3  1  0  0  0  0
  4  3  1  0  0  0  0
  5  4  2  0  0  0  0
  6  5  1  0  0  0  0
  7  6  2  0  0  0  0
  8  7  1  0  0  0  0
  3  8  2  0  0  0  0
  2  9  2  0  0  0  0
M  END
> <ChemID>
100792

> <CAS>
532-32-1

> <Original_SMILES>
[Na+].[O-]C(=O)c1ccccc1

> <preferred_name>
Sodium benzoate

> <dsstox_substance_id>
DTXSID1020140

> <dsstox_compound_id>
DTXCID90140

> <qc_level>
DSSTox_Low

> <Canonical_QSARr>
OC(=O)C1C=CC=CC=1

> <InChI_Code_QSARr>
InChI=1S/C7H6O2/c8-7(9)6-4-2-1-3-5-6/h1-5H,(H,8,9)

> <InChI Key_QSARr>
WPYMKLBDIGXBTP-UHFFFAOYSA-N

> <Salt_Solvent>
[Na+]

> <Salt_Solvent_ID>
110

> <MPID>
100799

> <Tr_1_Tst_0>
1

> <Ready_Biodeg>
1.0

$$$$
Row777
  Mrv171c012251911052D          

  8  8  0  0  0  0            999 V2000
    1.4309   -1.2410    0.0000 C   0  0  0  0  0  0  0  0  0  0  0  0
    2.1453   -0.8285    0.0000 I   0  0  0  0  0  0  0  0  0  0  0  0
    0.7164   -0.8285    0.0000 C   0  0  0  0  0  0  0  0  0  0  0  0
    0.7164   -0.0035    0.0000 O   0  0  0  0  0  0  0  0  0  0  0  0
    0.0019   -1.2410    0.0000 C   0  0  0  0  0  0  0  0  0  0  0  0
    0.0019   -2.0660    0.0000 C   0  0  0  0  0  0  0  0  0  0  0  0
    0.7164   -2.4785    0.0000 C   0  0  0  0  0  0  0  0  0  0  0  0
    1.4309   -2.0660    0.0000 C   0  0  0  0  0  0  0  0  0  0  0  0
  1  2  1  0  0  0  0
  3  1  2  0  0  0  0
  3  4  1  0  0  0  0
  5  3  1  0  0  0  0
  6  5  2  0  0  0  0
  7  6  1  0  0  0  0
  8  7  2  0  0  0  0
  1  8  1  0  0  0  0
M  END
> <ChemID>
100793

> <CAS>
533-58-4

> <Original_SMILES>
Oc1ccccc1I

> <preferred_name>
2-Iodophenol

> <dsstox_substance_id>
DTXSID5052175

> <dsstox_compound_id>
DTXCID5030745

> <qc_level>
DSSTox_Low

> <Canonical_QSARr>
OC1C=CC=CC=1I

> <InChI_Code_QSARr>
InChI=1S/C6H5IO/c7-5-3-1-2-4-6(5)8/h1-4,8H

> <InChI Key_QSARr>
KQDJTBPASNJQFQ-UHFFFAOYSA-N

> <Salt_Solvent>


> <Salt_Solvent_ID>
0

> <MPID>
100800

> <Tr_1_Tst_0>
0

> <Ready_Biodeg>
0.0

$$$$
Row778
  Mrv171c012251911052D          

 14 14  0  0  0  0            999 V2000
    3.4348   -1.3674    0.0000 O   0  0  0  0  0  0  0  0  0  0  0  0
    2.7203   -1.7799    0.0000 C   0  0  0  0  0  0  0  0  0  0  0  0
    2.0059   -1.3674    0.0000 C   0  0  0  0  0  0  0  0  0  0  0  0
    2.0059   -0.5424    0.0000 N   0  3  0  0  0  0  0  0  0  0  0  0
    1.2914   -0.1299    0.0000 O   0  0  0  0  0  0  0  0  0  0  0  0
    2.7203   -0.1299    0.0000 O   0  5  0  0  0  0  0  0  0  0  0  0
    1.2914   -1.7799    0.0000 C   0  0  0  0  0  0  0  0  0  0  0  0
    1.2914   -2.6049    0.0000 C   0  0  0  0  0  0  0  0  0  0  0  0
    0.5769   -3.0174    0.0000 N   0  3  0  0  0  0  0  0  0  0  0  0
    0.5769   -3.8424    0.0000 O   0  0  0  0  0  0  0  0  0  0  0  0
   -0.1376   -2.6049    0.0000 O   0  5  0  0  0  0  0  0  0  0  0  0
    2.0059   -3.0174    0.0000 C   0  0  0  0  0  0  0  0  0  0  0  0
    2.7203   -2.6049    0.0000 C   0  0  0  0  0  0  0  0  0  0  0  0
    3.4348   -3.0174    0.0000 C   0  0  0  0  0  0  0  0  0  0  0  0
  1  2  1  0  0  0  0
  3  2  1  0  0  0  0
  3  4  1  0  0  0  0
  4  5  2  0  0  0  0
  4  6  1  0  0  0  0
  7  3  2  0  0  0  0
  8  7  1  0  0  0  0
  8  9  1  0  0  0  0
  9 10  2  0  0  0  0
  9 11  1  0  0  0  0
 12  8  2  0  0  0  0
 13 12  1  0  0  0  0
  2 13  2  0  0  0  0
 13 14  1  0  0  0  0
M  CHG  4   4   1   6  -1   9   1  11  -1
M  END
> <ChemID>
100794

> <CAS>
534-52-1

> <Original_SMILES>
Cc1cc(cc(c1O)[N+]([O-])=O)[N+]([O-])=O

> <preferred_name>
2-Methyl-4,6-dinitrophenol

> <dsstox_substance_id>
DTXSID1022053

> <dsstox_compound_id>
DTXCID902053

> <qc_level>
DSSTox_Low

> <Canonical_QSARr>
CC1C=C(C=C(C=1O)[N+]([O-])=O)[N+]([O-])=O

> <InChI_Code_QSARr>
InChI=1S/C7H6N2O5/c1-4-2-5(8(11)12)3-6(7(4)10)9(13)14/h2-3,10H,1H3

> <InChI Key_QSARr>
ZXVONLUNISGICL-UHFFFAOYSA-N

> <Salt_Solvent>


> <Salt_Solvent_ID>
0

> <MPID>
100801

> <Tr_1_Tst_0>
1

> <Ready_Biodeg>
0.0

$$$$
Row779
  Mrv171c012251911052D          

 10 10  0  0  0  0            999 V2000
    0.6430    0.6188    0.0000 C   0  0  0  0  0  0  0  0  0  0  0  0
   -0.0715    0.2063    0.0000 C   0  0  0  0  0  0  0  0  0  0  0  0
   -0.7859    0.6188    0.0000 C   0  0  0  0  0  0  0  0  0  0  0  0
   -0.0715   -0.6187    0.0000 C   0  0  0  0  0  0  0  0  0  0  0  0
    1.3575    0.2062    0.0000 C   0  0  0  0  0  0  0  0  0  0  0  0
    2.0720    0.6187    0.0000 C   0  0  0  0  0  0  0  0  0  0  0  0
    2.0720    1.4437    0.0000 C   0  0  0  0  0  0  0  0  0  0  0  0
    1.3575    1.8562    0.0000 C   0  0  0  0  0  0  0  0  0  0  0  0
    1.3575    2.6812    0.0000 C   0  0  0  0  0  0  0  0  0  0  0  0
    0.6430    1.4438    0.0000 C   0  0  0  0  0  0  0  0  0  0  0  0
  1  2  1  0  0  0  0
  2  3  1  0  0  0  0
  2  4  1  0  0  0  0
  5  1  1  0  0  0  0
  6  5  2  0  0  0  0
  7  6  1  0  0  0  0
  8  7  2  0  0  0  0
  8  9  1  0  0  0  0
 10  8  1  0  0  0  0
  1 10  2  0  0  0  0
M  END
> <ChemID>
100795

> <CAS>
535-77-3

> <Original_SMILES>
Cc1cccc(c1)C(C)C

> <preferred_name>
m-Cymene

> <dsstox_substance_id>
DTXSID2060206

> <dsstox_compound_id>
DTXCID9041449

> <qc_level>
Public_High

> <Canonical_QSARr>
CC1C=C(C=CC=1)C(C)C

> <InChI_Code_QSARr>
InChI=1S/C10H14/c1-8(2)10-6-4-5-9(3)7-10/h4-8H,1-3H3

> <InChI Key_QSARr>
XCYJPXQACVEIOS-UHFFFAOYSA-N

> <Salt_Solvent>


> <Salt_Solvent_ID>
0

> <MPID>
100802

> <Tr_1_Tst_0>
1

> <Ready_Biodeg>
0.0

$$$$
Row780
  Mrv171c012251911052D          

 10 10  0  0  0  0            999 V2000
    2.2477   -1.9855    0.0000 C   0  0  0  0  0  0  0  0  0  0  0  0
    1.5332   -1.5730    0.0000 C   0  0  0  0  0  0  0  0  0  0  0  0
    1.5332   -0.7480    0.0000 C   0  0  0  0  0  0  0  0  0  0  0  0
    0.8187   -0.3355    0.0000 C   0  0  0  0  0  0  0  0  0  0  0  0
    0.8187    0.4895    0.0000 Cl  0  0  0  0  0  0  0  0  0  0  0  0
    0.1042   -0.7480    0.0000 C   0  0  0  0  0  0  0  0  0  0  0  0
    0.1042   -1.5730    0.0000 C   0  0  0  0  0  0  0  0  0  0  0  0
    0.8187   -1.9855    0.0000 C   0  0  0  0  0  0  0  0  0  0  0  0
    2.9621   -1.5730    0.0000 O   0  0  0  0  0  0  0  0  0  0  0  0
    2.2477   -2.8105    0.0000 O   0  0  0  0  0  0  0  0  0  0  0  0
  1  2  1  0  0  0  0
  3  2  1  0  0  0  0
  4  3  2  0  0  0  0
  4  5  1  0  0  0  0
  6  4  1  0  0  0  0
  7  6  2  0  0  0  0
  8  7  1  0  0  0  0
  2  8  2  0  0  0  0
  1  9  1  0  0  0  0
  1 10  2  0  0  0  0
M  END
> <ChemID>
100796

> <CAS>
535-80-8

> <Original_SMILES>
OC(=O)c1cccc(Cl)c1

> <preferred_name>
3-Chlorobenzoic acid

> <dsstox_substance_id>
DTXSID9024770

> <dsstox_compound_id>
DTXCID904770

> <qc_level>
DSSTox_Low

> <Canonical_QSARr>
OC(=O)C1C=C(Cl)C=CC=1

> <InChI_Code_QSARr>
InChI=1S/C7H5ClO2/c8-6-3-1-2-5(4-6)7(9)10/h1-4H,(H,9,10)

> <InChI Key_QSARr>
LULAYUGMBFYYEX-UHFFFAOYSA-N

> <Salt_Solvent>


> <Salt_Solvent_ID>
0

> <MPID>
100803

> <Tr_1_Tst_0>
1

> <Ready_Biodeg>
1.0

$$$$
Row781
  Mrv171c012251911052D          

 11 11  0  0  0  0            999 V2000
    1.2271   -2.5243    0.0000 C   0  0  0  0  0  0  0  0  0  0  0  0
    1.9416   -2.1118    0.0000 C   0  0  0  0  0  0  0  0  0  0  0  0
    2.6560   -2.5243    0.0000 C   0  0  0  0  0  0  0  0  0  0  0  0
    1.9416   -1.2868    0.0000 C   0  0  0  0  0  0  0  0  0  0  0  0
    2.6560   -0.8743    0.0000 C   0  0  0  0  0  0  0  0  0  0  0  0
    2.6560   -0.0493    0.0000 C   0  0  0  0  0  0  0  0  0  0  0  0
    1.9416    0.3632    0.0000 C   0  0  0  0  0  0  0  0  0  0  0  0
    1.9416    1.1882    0.0000 C   0  0  0  0  0  0  0  0  0  0  0  0
    1.2271    1.6007    0.0000 O   0  0  0  0  0  0  0  0  0  0  0  0
    1.2271   -0.0493    0.0000 C   0  0  0  0  0  0  0  0  0  0  0  0
    1.2271   -0.8743    0.0000 C   0  0  0  0  0  0  0  0  0  0  0  0
  1  2  1  0  0  0  0
  2  3  1  0  0  0  0
  2  4  1  0  0  0  0
  5  4  1  0  0  0  0
  6  5  2  0  0  0  0
  7  6  1  0  0  0  0
  7  8  1  0  0  0  0
  8  9  1  0  0  0  0
 10  7  2  0  0  0  0
 11 10  1  0  0  0  0
  4 11  2  0  0  0  0
M  END
> <ChemID>
100797

> <CAS>
536-60-7

> <Original_SMILES>
CC(C)c1ccc(CO)cc1

> <preferred_name>
4-Isopropylbenzyl alcohol

> <dsstox_substance_id>
DTXSID0021626

> <dsstox_compound_id>
DTXCID301626

> <qc_level>
DSSTox_Low

> <Canonical_QSARr>
CC(C)C1C=CC(CO)=CC=1

> <InChI_Code_QSARr>
InChI=1S/C10H14O/c1-8(2)10-5-3-9(7-11)4-6-10/h3-6,8,11H,7H2,1-2H3

> <InChI Key_QSARr>
OIGWAXDAPKFNCQ-UHFFFAOYSA-N

> <Salt_Solvent>


> <Salt_Solvent_ID>
0

> <MPID>
100804

> <Tr_1_Tst_0>
0

> <Ready_Biodeg>
1.0

$$$$
Row782
  Mrv171c012251911052D          

 12 12  0  0  0  0            999 V2000
   -0.0000   -1.6500    0.0000 C   0  0  0  0  0  0  0  0  0  0  0  0
    0.7145   -1.2375    0.0000 C   0  0  0  0  0  0  0  0  0  0  0  0
    0.7145   -0.4125    0.0000 C   0  0  0  0  0  0  0  0  0  0  0  0
    1.4289    0.0000    0.0000 C   0  0  0  0  0  0  0  0  0  0  0  0
    1.4289    0.8250    0.0000 C   0  0  0  0  0  0  0  0  0  0  0  0
    0.7145    1.2375    0.0000 C   0  0  0  0  0  0  0  0  0  0  0  0
    0.7145    2.0625    0.0000 C   0  0  0  0  0  0  0  0  0  0  0  0
   -0.0000    2.4750    0.0000 O   0  0  0  0  0  0  0  0  0  0  0  0
    1.4289    2.4750    0.0000 O   0  0  0  0  0  0  0  0  0  0  0  0
   -0.0000    0.8250    0.0000 C   0  0  0  0  0  0  0  0  0  0  0  0
   -0.0000    0.0000    0.0000 C   0  0  0  0  0  0  0  0  0  0  0  0
    1.4289   -1.6500    0.0000 C   0  0  0  0  0  0  0  0  0  0  0  0
  1  2  1  0  0  0  0
  2  3  1  0  0  0  0
  4  3  1  0  0  0  0
  5  4  2  0  0  0  0
  6  5  1  0  0  0  0
  6  7  1  0  0  0  0
  7  8  1  0  0  0  0
  7  9  2  0  0  0  0
 10  6  2  0  0  0  0
 11 10  1  0  0  0  0
  3 11  2  0  0  0  0
  2 12  1  0  0  0  0
M  END
> <ChemID>
100798

> <CAS>
536-66-3

> <Original_SMILES>
CC(C)c1ccc(cc1)C(O)=O

> <preferred_name>
4-Isopropylbenzoic acid

> <dsstox_substance_id>
DTXSID6060210

> <dsstox_compound_id>
DTXCID6041476

> <qc_level>
Public_High

> <Canonical_QSARr>
CC(C)C1C=CC(=CC=1)C(O)=O

> <InChI_Code_QSARr>
InChI=1S/C10H12O2/c1-7(2)8-3-5-9(6-4-8)10(11)12/h3-7H,1-2H3,(H,11,12)

> <InChI Key_QSARr>
CKMXAIVXVKGGFM-UHFFFAOYSA-N

> <Salt_Solvent>


> <Salt_Solvent_ID>
0

> <MPID>
100805

> <Tr_1_Tst_0>
1

> <Ready_Biodeg>
1.0

$$$$
Row783
  Mrv171c012251911052D          

  9  9  0  0  0  0            999 V2000
    2.9367   -1.9260    0.0000 O   0  0  0  0  0  0  0  0  0  0  0  0
    2.2223   -1.5135    0.0000 C   0  0  0  0  0  0  0  0  0  0  0  0
    2.2223   -0.6885    0.0000 C   0  0  0  0  0  0  0  0  0  0  0  0
    1.5078   -0.2760    0.0000 C   0  0  0  0  0  0  0  0  0  0  0  0
    1.5078    0.5490    0.0000 N   0  0  0  0  0  0  0  0  0  0  0  0
    0.7933   -0.6885    0.0000 C   0  0  0  0  0  0  0  0  0  0  0  0
    0.7933   -1.5135    0.0000 C   0  0  0  0  0  0  0  0  0  0  0  0
    1.5078   -1.9260    0.0000 C   0  0  0  0  0  0  0  0  0  0  0  0
    3.6512   -1.5135    0.0000 C   0  0  0  0  0  0  0  0  0  0  0  0
  1  2  1  0  0  0  0
  3  2  1  0  0  0  0
  4  3  2  0  0  0  0
  4  5  1  0  0  0  0
  6  4  1  0  0  0  0
  7  6  2  0  0  0  0
  8  7  1  0  0  0  0
  2  8  2  0  0  0  0
  1  9  1  0  0  0  0
M  END
> <ChemID>
100799

> <CAS>
536-90-3

> <Original_SMILES>
COc1cccc(N)c1

> <preferred_name>
3-Methoxyaniline

> <dsstox_substance_id>
DTXSID8024529

> <dsstox_compound_id>
DTXCID604529

> <qc_level>
DSSTox_Low

> <Canonical_QSARr>
COC1C=C(N)C=CC=1

> <InChI_Code_QSARr>
InChI=1S/C7H9NO/c1-9-7-4-2-3-6(8)5-7/h2-5H,8H2,1H3

> <InChI Key_QSARr>
NCBZRJODKRCREW-UHFFFAOYSA-N

> <Salt_Solvent>


> <Salt_Solvent_ID>
0

> <MPID>
100806

> <Tr_1_Tst_0>
1

> <Ready_Biodeg>
0.0

$$$$
Row784
  Mrv171c012251911052D          

 15 16  0  0  0  0            999 V2000
    2.8546   -1.2389    0.0000 C   0  0  0  0  0  0  0  0  0  0  0  0
    2.1401   -1.6514    0.0000 N   0  0  0  0  0  0  0  0  0  0  0  0
    2.1401   -2.4764    0.0000 C   0  0  0  0  0  0  0  0  0  0  0  0
    1.4256   -2.8889    0.0000 C   0  0  0  0  0  0  0  0  0  0  0  0
    1.4256   -3.7139    0.0000 C   0  0  0  0  0  0  0  0  0  0  0  0
    2.1401   -4.1264    0.0000 C   0  0  0  0  0  0  0  0  0  0  0  0
    2.8546   -3.7139    0.0000 C   0  0  0  0  0  0  0  0  0  0  0  0
    2.8546   -2.8889    0.0000 C   0  0  0  0  0  0  0  0  0  0  0  0
    3.5690   -0.8264    0.0000 N   0  0  0  0  0  0  0  0  0  0  0  0
    3.5690   -0.0014    0.0000 C   0  0  0  0  0  0  0  0  0  0  0  0
    4.2835    0.4111    0.0000 C   0  0  0  0  0  0  0  0  0  0  0  0
    4.2835    1.2361    0.0000 C   0  0  0  0  0  0  0  0  0  0  0  0
    3.5690    1.6486    0.0000 C   0  0  0  0  0  0  0  0  0  0  0  0
    2.8546    1.2361    0.0000 C   0  0  0  0  0  0  0  0  0  0  0  0
    2.8546    0.4111    0.0000 C   0  0  0  0  0  0  0  0  0  0  0  0
  1  2  2  0  0  0  0
  2  3  1  0  0  0  0
  4  3  1  0  0  0  0
  5  4  1  0  0  0  0
  6  5  1  0  0  0  0
  7  6  1  0  0  0  0
  8  7  1  0  0  0  0
  3  8  1  0  0  0  0
  1  9  2  0  0  0  0
  9 10  1  0  0  0  0
 11 10  1  0  0  0  0
 12 11  1  0  0  0  0
 13 12  1  0  0  0  0
 14 13  1  0  0  0  0
 15 14  1  0  0  0  0
 10 15  1  0  0  0  0
M  END
> <ChemID>
100800

> <CAS>
538-75-0

> <Original_SMILES>
C1CCCCC1N=C=NC1CCCCC1

> <preferred_name>
Dicyclohexylcarbodiimide

> <dsstox_substance_id>
DTXSID1023817

> <dsstox_compound_id>
DTXCID003817

> <qc_level>
DSSTox_High

> <Canonical_QSARr>
C1CCCCC1N=C=NC1CCCCC1

> <InChI_Code_QSARr>
InChI=1S/C13H22N2/c1-3-7-12(8-4-1)14-11-15-13-9-5-2-6-10-13/h12-13H,1-10H2

> <InChI Key_QSARr>
QOSSAOTZNIDXMA-UHFFFAOYSA-N

> <Salt_Solvent>


> <Salt_Solvent_ID>
0

> <MPID>
100807

> <Tr_1_Tst_0>
1

> <Ready_Biodeg>
0.0

$$$$
Row785
  Mrv171c012251911052D          

  8  8  0  0  0  0            999 V2000
    2.1394   -0.4129    0.0000 C   0  0  0  0  0  0  0  0  0  0  0  0
    1.4249   -0.0004    0.0000 C   0  0  0  0  0  0  0  0  0  0  0  0
    1.4249    0.8246    0.0000 O   0  0  0  0  0  0  0  0  0  0  0  0
    0.7104   -0.4129    0.0000 C   0  0  0  0  0  0  0  0  0  0  0  0
    0.7104   -1.2379    0.0000 C   0  0  0  0  0  0  0  0  0  0  0  0
    1.4249   -1.6504    0.0000 C   0  0  0  0  0  0  0  0  0  0  0  0
    1.4249   -2.4754    0.0000 I   0  0  0  0  0  0  0  0  0  0  0  0
    2.1394   -1.2379    0.0000 C   0  0  0  0  0  0  0  0  0  0  0  0
  2  1  2  0  0  0  0
  2  3  1  0  0  0  0
  4  2  1  0  0  0  0
  5  4  2  0  0  0  0
  6  5  1  0  0  0  0
  6  7  1  0  0  0  0
  8  6  2  0  0  0  0
  1  8  1  0  0  0  0
M  END
> <ChemID>
100801

> <CAS>
540-38-5

> <Original_SMILES>
Oc1ccc(I)cc1

> <preferred_name>
4-Iodophenol

> <dsstox_substance_id>
DTXSID4052186

> <dsstox_compound_id>
DTXCID4030756

> <qc_level>
DSSTox_High

> <Canonical_QSARr>
OC1=CC=C(I)C=C1

> <InChI_Code_QSARr>
InChI=1S/C6H5IO/c7-5-1-3-6(8)4-2-5/h1-4,8H

> <InChI Key_QSARr>
VSMDINRNYYEDRN-UHFFFAOYSA-N

> <Salt_Solvent>


> <Salt_Solvent_ID>
0

> <MPID>
100808

> <Tr_1_Tst_0>
0

> <Ready_Biodeg>
0.0

$$$$
Row786
  Mrv171c012251911052D          

  4  3  0  0  0  0            999 V2000
    1.2375    0.7145    0.0000 Br  0  0  0  0  0  0  0  0  0  0  0  0
    0.8250    0.0000    0.0000 C   0  0  0  0  0  0  0  0  0  0  0  0
    0.0000    0.0000    0.0000 C   0  0  0  0  0  0  0  0  0  0  0  0
   -0.4125   -0.7145    0.0000 Br  0  0  0  0  0  0  0  0  0  0  0  0
  2  1  1  4  0  0  0
  2  3  2  0  0  0  0
  3  4  1  0  0  0  0
M  END
> <ChemID>
100802

> <CAS>
540-49-8

> <Original_SMILES>
BrC=CBr

> <preferred_name>
1,2-Dibromoethylene

> <dsstox_substance_id>
DTXSID3060241

> <dsstox_compound_id>
DTXCID5041566

> <qc_level>
Public_High

> <Canonical_QSARr>
BrC=CBr

> <InChI_Code_QSARr>
InChI=1S/C2H2Br2/c3-1-2-4/h1-2H

> <InChI Key_QSARr>
UWTUEMKLYAGTNQ-UHFFFAOYSA-N

> <Salt_Solvent>


> <Salt_Solvent_ID>
0

> <MPID>
100809

> <Tr_1_Tst_0>
1

> <Ready_Biodeg>
0.0

$$$$
Row787
  Mrv171c012251911052D          

  6  5  0  0  0  0            999 V2000
    1.4748   -0.2965    0.0000 C   0  0  0  0  0  0  0  0  0  0  0  0
    1.8873    0.4179    0.0000 Cl  0  0  0  0  0  0  0  0  0  0  0  0
    1.8873   -1.0110    0.0000 O   0  0  0  0  0  0  0  0  0  0  0  0
    1.4748   -1.7255    0.0000 C   0  0  0  0  0  0  0  0  0  0  0  0
    1.8873   -2.4399    0.0000 C   0  0  0  0  0  0  0  0  0  0  0  0
    0.6498   -0.2965    0.0000 O   0  0  0  0  0  0  0  0  0  0  0  0
  1  2  1  0  0  0  0
  1  3  1  0  0  0  0
  3  4  1  0  0  0  0
  4  5  1  0  0  0  0
  1  6  2  0  0  0  0
M  END
> <ChemID>
100804

> <CAS>
541-41-3

> <Original_SMILES>
CCOC(=O)Cl

> <preferred_name>
Ethyl chloroformate

> <dsstox_substance_id>
DTXSID1027186

> <dsstox_compound_id>
DTXCID707186

> <qc_level>
DSSTox_Low

> <Canonical_QSARr>
CCOC(=O)Cl

> <InChI_Code_QSARr>
InChI=1S/C3H5ClO2/c1-2-6-3(4)5/h2H2,1H3

> <InChI Key_QSARr>
RIFGWPKJUGCATF-UHFFFAOYSA-N

> <Salt_Solvent>


> <Salt_Solvent_ID>
0

> <MPID>
100811

> <Tr_1_Tst_0>
1

> <Ready_Biodeg>
1.0

$$$$
Row788
  Mrv171c012251911052D          

  8  8  0  0  0  0            999 V2000
    0.1795   -1.9594    0.0000 Cl  0  0  0  0  0  0  0  0  0  0  0  0
    0.8940   -1.5469    0.0000 C   0  0  0  0  0  0  0  0  0  0  0  0
    1.6084   -1.9594    0.0000 C   0  0  0  0  0  0  0  0  0  0  0  0
    2.3229   -1.5469    0.0000 C   0  0  0  0  0  0  0  0  0  0  0  0
    2.3229   -0.7219    0.0000 C   0  0  0  0  0  0  0  0  0  0  0  0
    1.6084   -0.3094    0.0000 C   0  0  0  0  0  0  0  0  0  0  0  0
    1.6084    0.5156    0.0000 Cl  0  0  0  0  0  0  0  0  0  0  0  0
    0.8940   -0.7219    0.0000 C   0  0  0  0  0  0  0  0  0  0  0  0
  1  2  1  0  0  0  0
  3  2  1  0  0  0  0
  4  3  2  0  0  0  0
  5  4  1  0  0  0  0
  6  5  2  0  0  0  0
  6  7  1  0  0  0  0
  8  6  1  0  0  0  0
  2  8  2  0  0  0  0
M  END
> <ChemID>
100805

> <CAS>
541-73-1

> <Original_SMILES>
Clc1cc(Cl)ccc1

> <preferred_name>
1,3-Dichlorobenzene

> <dsstox_substance_id>
DTXSID6022056

> <dsstox_compound_id>
DTXCID102056

> <qc_level>
DSSTox_Low

> <Canonical_QSARr>
ClC1=CC(Cl)=CC=C1

> <InChI_Code_QSARr>
InChI=1S/C6H4Cl2/c7-5-2-1-3-6(8)4-5/h1-4H

> <InChI Key_QSARr>
ZPQOPVIELGIULI-UHFFFAOYSA-N

> <Salt_Solvent>


> <Salt_Solvent_ID>
0

> <MPID>
100812

> <Tr_1_Tst_0>
0

> <Ready_Biodeg>
0.0

$$$$
Row789
  Mrv171c012251911052D          

  9  8  0  0  0  0            999 V2000
   -0.0130   -0.8147    0.0000 C   0  0  0  0  0  0  0  0  0  0  0  0
    0.7015   -1.2272    0.0000 C   0  0  0  0  0  0  0  0  0  0  0  0
    1.4159   -0.8147    0.0000 C   0  0  0  0  0  0  0  0  0  0  0  0
    1.4159    0.0103    0.0000 O   0  0  0  0  0  0  0  0  0  0  0  0
    2.1304   -1.2272    0.0000 C   0  0  0  0  0  0  0  0  0  0  0  0
    2.8449   -0.8147    0.0000 C   0  0  0  0  0  0  0  0  0  0  0  0
    2.8449    0.0103    0.0000 C   0  0  0  0  0  0  0  0  0  0  0  0
    3.5594   -1.2272    0.0000 C   0  0  0  0  0  0  0  0  0  0  0  0
    4.2738   -0.8147    0.0000 C   0  0  0  0  0  0  0  0  0  0  0  0
  1  2  1  0  0  0  0
  2  3  1  0  0  0  0
  3  4  2  0  0  0  0
  3  5  1  0  0  0  0
  5  6  1  0  0  0  0
  6  7  1  0  0  0  0
  6  8  1  0  0  0  0
  8  9  1  0  0  0  0
M  END
> <ChemID>
100806

> <CAS>
541-85-5

> <Original_SMILES>
CC(CC(=O)CC)CC

> <preferred_name>
5-Methyl-3-heptanone

> <dsstox_substance_id>
DTXSID9047047

> <dsstox_compound_id>
DTXCID7027047

> <qc_level>
DSSTox_Low

> <Canonical_QSARr>
CC(CC(=O)CC)CC

> <InChI_Code_QSARr>
InChI=1S/C8H16O/c1-4-7(3)6-8(9)5-2/h7H,4-6H2,1-3H3

> <InChI Key_QSARr>
PSBKJPTZCVYXSD-UHFFFAOYSA-N

> <Salt_Solvent>


> <Salt_Solvent_ID>
0

> <MPID>
100813

> <Tr_1_Tst_0>
1

> <Ready_Biodeg>
1.0

$$$$
Row790
  Mrv171c012251911052D          

  7  7  0  0  0  0            999 V2000
    0.9202   -0.1214    0.0000 C   0  0  0  0  0  0  0  0  0  0  0  0
    0.9202    0.7036    0.0000 Cl  0  0  0  0  0  0  0  0  0  0  0  0
    0.2057   -0.5339    0.0000 C   0  0  0  0  0  0  0  0  0  0  0  0
    0.2057   -1.3589    0.0000 C   0  0  0  0  0  0  0  0  0  0  0  0
    0.9202   -1.7714    0.0000 C   0  0  0  0  0  0  0  0  0  0  0  0
    1.6346   -1.3589    0.0000 C   0  0  0  0  0  0  0  0  0  0  0  0
    1.6346   -0.5339    0.0000 C   0  0  0  0  0  0  0  0  0  0  0  0
  1  2  1  0  0  0  0
  3  1  1  0  0  0  0
  4  3  1  0  0  0  0
  5  4  1  0  0  0  0
  6  5  1  0  0  0  0
  7  6  1  0  0  0  0
  1  7  1  0  0  0  0
M  END
> <ChemID>
100807

> <CAS>
542-18-7

> <Original_SMILES>
ClC1CCCCC1

> <preferred_name>
Chlorocyclohexane

> <dsstox_substance_id>
DTXSID3052193

> <dsstox_compound_id>
DTXCID8030764

> <qc_level>
DSSTox_High

> <Canonical_QSARr>
ClC1CCCCC1

> <InChI_Code_QSARr>
InChI=1S/C6H11Cl/c7-6-4-2-1-3-5-6/h6H,1-5H2

> <InChI Key_QSARr>
UNFUYWDGSFDHCW-UHFFFAOYSA-N

> <Salt_Solvent>


> <Salt_Solvent_ID>
0

> <MPID>
100814

> <Tr_1_Tst_0>
1

> <Ready_Biodeg>
0.0

$$$$
Row791
  Mrv171c012251911052D          

  5  4  0  0  0  0            999 V2000
    1.2375    0.7145    0.0000 Cl  0  0  0  0  0  0  0  0  0  0  0  0
    0.8250    0.0000    0.0000 C   0  0  0  0  0  0  0  0  0  0  0  0
    0.0000    0.0000    0.0000 C   0  0  0  0  0  0  0  0  0  0  0  0
   -0.4125   -0.7145    0.0000 C   0  0  0  0  0  0  0  0  0  0  0  0
    0.0000   -1.4289    0.0000 Cl  0  0  0  0  0  0  0  0  0  0  0  0
  2  1  1  4  0  0  0
  2  3  2  0  0  0  0
  3  4  1  0  0  0  0
  4  5  1  0  0  0  0
M  END
> <ChemID>
100808

> <CAS>
542-75-6

> <Original_SMILES>
ClC=CCCl

> <preferred_name>
1,3-Dichloropropene

> <dsstox_substance_id>
DTXSID1022057

> <dsstox_compound_id>
DTXCID501307

> <qc_level>
DSSTox_Low

> <Canonical_QSARr>
ClC=CCCl

> <InChI_Code_QSARr>
InChI=1S/C3H4Cl2/c4-2-1-3-5/h1-2H,3H2

> <InChI Key_QSARr>
UOORRWUZONOOLO-UHFFFAOYSA-N

> <Salt_Solvent>


> <Salt_Solvent_ID>
0

> <MPID>
100815

> <Tr_1_Tst_0>
1

> <Ready_Biodeg>
0.0

$$$$
Row792
  Mrv171c012251911052D          

 11 10  0  0  0  0            999 V2000
    0.7301   -0.9035    0.0000 C   0  0  0  0  0  0  0  0  0  0  0  0
    0.0156   -0.4910    0.0000 C   0  0  0  0  0  0  0  0  0  0  0  0
    0.7301   -1.7285    0.0000 C   0  0  0  0  0  0  0  0  0  0  0  0
    1.4446   -0.4910    0.0000 C   0  0  0  0  0  0  0  0  0  0  0  0
    2.1590   -0.9035    0.0000 C   0  0  0  0  0  0  0  0  0  0  0  0
    2.8735   -0.4910    0.0000 O   0  0  0  0  0  0  0  0  0  0  0  0
    3.5880   -0.9035    0.0000 C   0  0  0  0  0  0  0  0  0  0  0  0
    4.3024   -0.4910    0.0000 C   0  0  0  0  0  0  0  0  0  0  0  0
    5.0169   -0.9035    0.0000 C   0  0  0  0  0  0  0  0  0  0  0  0
    5.7314   -0.4910    0.0000 C   0  0  0  0  0  0  0  0  0  0  0  0
    5.0169   -1.7285    0.0000 C   0  0  0  0  0  0  0  0  0  0  0  0
  1  2  1  0  0  0  0
  1  3  1  0  0  0  0
  1  4  1  0  0  0  0
  4  5  1  0  0  0  0
  5  6  1  0  0  0  0
  6  7  1  0  0  0  0
  7  8  1  0  0  0  0
  8  9  1  0  0  0  0
  9 10  1  0  0  0  0
  9 11  1  0  0  0  0
M  END
> <ChemID>
100809

> <CAS>
544-01-4

> <Original_SMILES>
CC(C)CCOCCC(C)C

> <preferred_name>
Isoamyl ether

> <dsstox_substance_id>
DTXSID8052198

> <dsstox_compound_id>
DTXCID3030769

> <qc_level>
DSSTox_Low

> <Canonical_QSARr>
CC(C)CCOCCC(C)C

> <InChI_Code_QSARr>
InChI=1S/C10H22O/c1-9(2)5-7-11-8-6-10(3)4/h9-10H,5-8H2,1-4H3

> <InChI Key_QSARr>
AQZGPSLYZOOYQP-UHFFFAOYSA-N

> <Salt_Solvent>


> <Salt_Solvent_ID>
0

> <MPID>
100816

> <Tr_1_Tst_0>
0

> <Ready_Biodeg>
0.0

$$$$
Row793
  Mrv171c012251911052D          

 16 15  0  0  0  0            999 V2000
    0.0216   -0.4161    0.0000 C   0  0  0  0  0  0  0  0  0  0  0  0
    0.7360   -0.0036    0.0000 C   0  0  0  0  0  0  0  0  0  0  0  0
    1.4505   -0.4161    0.0000 C   0  0  0  0  0  0  0  0  0  0  0  0
    2.1650   -0.0036    0.0000 C   0  0  0  0  0  0  0  0  0  0  0  0
    2.8795   -0.4161    0.0000 C   0  0  0  0  0  0  0  0  0  0  0  0
    3.5939   -0.0036    0.0000 C   0  0  0  0  0  0  0  0  0  0  0  0
    4.3084   -0.4161    0.0000 C   0  0  0  0  0  0  0  0  0  0  0  0
    5.0229   -0.0036    0.0000 C   0  0  0  0  0  0  0  0  0  0  0  0
    5.7373   -0.4161    0.0000 C   0  0  0  0  0  0  0  0  0  0  0  0
    6.4518   -0.0036    0.0000 C   0  0  0  0  0  0  0  0  0  0  0  0
    7.1663   -0.4161    0.0000 C   0  0  0  0  0  0  0  0  0  0  0  0
    7.8808   -0.0036    0.0000 C   0  0  0  0  0  0  0  0  0  0  0  0
    8.5952   -0.4161    0.0000 C   0  0  0  0  0  0  0  0  0  0  0  0
    9.3097   -0.0036    0.0000 C   0  0  0  0  0  0  0  0  0  0  0  0
   10.0242   -0.4161    0.0000 C   0  0  0  0  0  0  0  0  0  0  0  0
   10.7386   -0.0036    0.0000 C   0  0  0  0  0  0  0  0  0  0  0  0
  1  2  1  0  0  0  0
  2  3  1  0  0  0  0
  3  4  1  0  0  0  0
  4  5  1  0  0  0  0
  5  6  1  0  0  0  0
  6  7  1  0  0  0  0
  7  8  1  0  0  0  0
  8  9  1  0  0  0  0
  9 10  1  0  0  0  0
 10 11  1  0  0  0  0
 11 12  1  0  0  0  0
 12 13  1  0  0  0  0
 13 14  1  0  0  0  0
 14 15  1  0  0  0  0
 15 16  1  0  0  0  0
M  END
> <ChemID>
100810

> <CAS>
544-76-3

> <Original_SMILES>
CCCCCCCCCCCCCCCC

> <preferred_name>
Hexadecane

> <dsstox_substance_id>
DTXSID0027195

> <dsstox_compound_id>
DTXCID607195

> <qc_level>
DSSTox_Low

> <Canonical_QSARr>
CCCCCCCCCCCCCCCC

> <InChI_Code_QSARr>
InChI=1S/C16H34/c1-3-5-7-9-11-13-15-16-14-12-10-8-6-4-2/h3-16H2,1-2H3

> <InChI Key_QSARr>
DCAYPVUWAIABOU-UHFFFAOYSA-N

> <Salt_Solvent>


> <Salt_Solvent_ID>
0

> <MPID>
100818

> <Tr_1_Tst_0>
1

> <Ready_Biodeg>
0.0

$$$$
Row794
  Mrv171c012251911052D          

 32 31  0  0  0  0            999 V2000
   -0.3599   -0.4200    0.0000 C   0  0  0  0  0  0  0  0  0  0  0  0
    0.3545   -0.0075    0.0000 C   0  0  0  0  0  0  0  0  0  0  0  0
    1.0690   -0.4200    0.0000 C   0  0  0  0  0  0  0  0  0  0  0  0
    1.7835   -0.0075    0.0000 C   0  0  0  0  0  0  0  0  0  0  0  0
    2.4980   -0.4200    0.0000 C   0  0  0  0  0  0  0  0  0  0  0  0
    3.2124   -0.0075    0.0000 C   0  0  0  0  0  0  0  0  0  0  0  0
    3.9269   -0.4200    0.0000 C   0  0  0  0  0  0  0  0  0  0  0  0
    4.6414   -0.0075    0.0000 C   0  0  0  0  0  0  0  0  0  0  0  0
    5.3558   -0.4200    0.0000 C   0  0  0  0  0  0  0  0  0  0  0  0
    6.0703   -0.0075    0.0000 C   0  0  0  0  0  0  0  0  0  0  0  0
    6.7848   -0.4200    0.0000 C   0  0  0  0  0  0  0  0  0  0  0  0
    7.4993   -0.0075    0.0000 C   0  0  0  0  0  0  0  0  0  0  0  0
    8.2137   -0.4200    0.0000 C   0  0  0  0  0  0  0  0  0  0  0  0
    8.9282   -0.0075    0.0000 C   0  0  0  0  0  0  0  0  0  0  0  0
    9.6427   -0.4200    0.0000 C   0  0  0  0  0  0  0  0  0  0  0  0
   10.3571   -0.0075    0.0000 C   0  0  0  0  0  0  0  0  0  0  0  0
   11.0716   -0.4200    0.0000 C   0  0  0  0  0  0  0  0  0  0  0  0
   11.7861   -0.0075    0.0000 C   0  0  0  0  0  0  0  0  0  0  0  0
   12.5005   -0.4200    0.0000 C   0  0  0  0  0  0  0  0  0  0  0  0
   13.2150   -0.0075    0.0000 C   0  0  0  0  0  0  0  0  0  0  0  0
   13.9295   -0.4200    0.0000 C   0  0  0  0  0  0  0  0  0  0  0  0
   14.6440   -0.0075    0.0000 C   0  0  0  0  0  0  0  0  0  0  0  0
   15.3584   -0.4200    0.0000 C   0  0  0  0  0  0  0  0  0  0  0  0
   16.0729   -0.0075    0.0000 C   0  0  0  0  0  0  0  0  0  0  0  0
   16.7874   -0.4200    0.0000 C   0  0  0  0  0  0  0  0  0  0  0  0
   17.5018   -0.0075    0.0000 C   0  0  0  0  0  0  0  0  0  0  0  0
   18.2163   -0.4200    0.0000 C   0  0  0  0  0  0  0  0  0  0  0  0
   18.9308   -0.0075    0.0000 C   0  0  0  0  0  0  0  0  0  0  0  0
   19.6453   -0.4200    0.0000 C   0  0  0  0  0  0  0  0  0  0  0  0
   20.3597   -0.0075    0.0000 C   0  0  0  0  0  0  0  0  0  0  0  0
   21.0742   -0.4200    0.0000 C   0  0  0  0  0  0  0  0  0  0  0  0
   21.7887   -0.0075    0.0000 C   0  0  0  0  0  0  0  0  0  0  0  0
  1  2  1  0  0  0  0
  2  3  1  0  0  0  0
  3  4  1  0  0  0  0
  4  5  1  0  0  0  0
  5  6  1  0  0  0  0
  6  7  1  0  0  0  0
  7  8  1  0  0  0  0
  8  9  1  0  0  0  0
  9 10  1  0  0  0  0
 10 11  1  0  0  0  0
 11 12  1  0  0  0  0
 12 13  1  0  0  0  0
 13 14  1  0  0  0  0
 14 15  1  0  0  0  0
 15 16  1  0  0  0  0
 16 17  1  0  0  0  0
 17 18  1  0  0  0  0
 18 19  1  0  0  0  0
 19 20  1  0  0  0  0
 20 21  1  0  0  0  0
 21 22  1  0  0  0  0
 22 23  1  0  0  0  0
 23 24  1  0  0  0  0
 24 25  1  0  0  0  0
 25 26  1  0  0  0  0
 26 27  1  0  0  0  0
 27 28  1  0  0  0  0
 28 29  1  0  0  0  0
 29 30  1  0  0  0  0
 30 31  1  0  0  0  0
 31 32  1  0  0  0  0
M  END
> <ChemID>
100811

> <CAS>
544-85-4

> <Original_SMILES>
CCCCCCCCCCCCCCCCCCCCCCCCCCCCCCCC

> <preferred_name>
Dotriacontane

> <dsstox_substance_id>
DTXSID5052202

> <dsstox_compound_id>
DTXCID7030773

> <qc_level>
DSSTox_High

> <Canonical_QSARr>
CCCCCCCCCCCCCCCCCCCCCCCCCCCCCCCC

> <InChI_Code_QSARr>
InChI=1S/C32H66/c1-3-5-7-9-11-13-15-17-19-21-23-25-27-29-31-32-30-28-26-24-22-20-18-16-14-12-10-8-6-4-2/h3-32H2,1-2H3

> <InChI Key_QSARr>
QHMGJGNTMQDRQA-UHFFFAOYSA-N

> <Salt_Solvent>


> <Salt_Solvent_ID>
0

> <MPID>
100819

> <Tr_1_Tst_0>
1

> <Ready_Biodeg>
1.0

$$$$
Row795
  Mrv171c012251911052D          

  8  7  0  0  0  0            999 V2000
    1.4255    0.7094    0.0000 O   0  0  0  0  0  0  0  0  0  0  0  0
    1.0130   -0.0051    0.0000 N   0  3  0  0  0  0  0  0  0  0  0  0
    1.4255   -0.7195    0.0000 C   0  0  0  0  0  0  0  0  0  0  0  0
    1.0130   -1.4340    0.0000 C   0  0  0  0  0  0  0  0  0  0  0  0
    1.4255   -2.1485    0.0000 C   0  0  0  0  0  0  0  0  0  0  0  0
    2.2505   -0.7195    0.0000 C   0  0  0  0  0  0  0  0  0  0  0  0
    2.6630   -1.4340    0.0000 C   0  0  0  0  0  0  0  0  0  0  0  0
    0.1880   -0.0051    0.0000 O   0  5  0  0  0  0  0  0  0  0  0  0
  1  2  2  0  0  0  0
  2  3  1  0  0  0  0
  3  4  1  0  0  0  0
  4  5  1  0  0  0  0
  3  6  1  0  0  0  0
  6  7  1  0  0  0  0
  2  8  1  0  0  0  0
M  CHG  2   2   1   8  -1
M  END
> <ChemID>
100816

> <CAS>
551-88-2

> <Original_SMILES>
CCC(CC)[N+]([O-])=O

> <preferred_name>
3-Nitropentane

> <dsstox_substance_id>
DTXSID2020979

> <dsstox_compound_id>
DTXCID00979

> <qc_level>
DSSTox_Low

> <Canonical_QSARr>
CCC(CC)[N+]([O-])=O

> <InChI_Code_QSARr>
InChI=1S/C5H11NO2/c1-3-5(4-2)6(7)8/h5H,3-4H2,1-2H3

> <InChI Key_QSARr>
RXPKOTQRDGEKFY-UHFFFAOYSA-N

> <Salt_Solvent>


> <Salt_Solvent_ID>
0

> <MPID>
100821

> <Tr_1_Tst_0>
0

> <Ready_Biodeg>
1.0

$$$$
Row796
  Mrv171c012251911052D          

 12 12  0  0  0  0            999 V2000
    2.5577   -1.6229    0.0000 C   0  0  0  0  0  0  0  0  0  0  0  0
    1.8432   -2.0354    0.0000 C   0  0  0  0  0  0  0  0  0  0  0  0
    1.1287   -1.6229    0.0000 C   0  0  0  0  0  0  0  0  0  0  0  0
    1.1287   -0.7979    0.0000 N   0  3  0  0  0  0  0  0  0  0  0  0
    0.4143   -0.3854    0.0000 O   0  5  0  0  0  0  0  0  0  0  0  0
    1.8432   -0.3854    0.0000 O   0  0  0  0  0  0  0  0  0  0  0  0
    0.4143   -2.0354    0.0000 C   0  0  0  0  0  0  0  0  0  0  0  0
    0.4143   -2.8604    0.0000 C   0  0  0  0  0  0  0  0  0  0  0  0
    1.1287   -3.2729    0.0000 C   0  0  0  0  0  0  0  0  0  0  0  0
    1.8432   -2.8604    0.0000 C   0  0  0  0  0  0  0  0  0  0  0  0
    3.2721   -2.0354    0.0000 O   0  0  0  0  0  0  0  0  0  0  0  0
    2.5577   -0.7979    0.0000 O   0  0  0  0  0  0  0  0  0  0  0  0
  1  2  1  0  0  0  0
  3  2  1  0  0  0  0
  3  4  1  0  0  0  0
  4  5  1  0  0  0  0
  4  6  2  0  0  0  0
  7  3  2  0  0  0  0
  8  7  1  0  0  0  0
  9  8  2  0  0  0  0
 10  9  1  0  0  0  0
  2 10  2  0  0  0  0
  1 11  1  0  0  0  0
  1 12  2  0  0  0  0
M  CHG  2   4   1   5  -1
M  END
> <ChemID>
100817

> <CAS>
552-16-9

> <Original_SMILES>
[O-][N+](=O)c1ccccc1C(O)=O

> <preferred_name>
2-Nitrobenzoic acid

> <dsstox_substance_id>
DTXSID5025738

> <dsstox_compound_id>
DTXCID005738

> <qc_level>
DSSTox_Low

> <Canonical_QSARr>
[O-][N+](=O)C1=CC=CC=C1C(O)=O

> <InChI_Code_QSARr>
InChI=1S/C7H5NO4/c9-7(10)5-3-1-2-4-6(5)8(11)12/h1-4H,(H,9,10)

> <InChI Key_QSARr>
SLAMLWHELXOEJZ-UHFFFAOYSA-N

> <Salt_Solvent>


> <Salt_Solvent_ID>
0

> <MPID>
100822

> <Tr_1_Tst_0>
1

> <Ready_Biodeg>
1.0

$$$$
Row797
  Mrv171c012251911052D          

 14 15  0  0  0  0            999 V2000
    0.6683   -0.5813    0.0000 O   0  0  0  0  0  0  0  0  0  0  0  0
    0.9232   -1.3659    0.0000 C   0  0  0  0  0  0  0  0  0  0  0  0
    1.7078   -1.6208    0.0000 C   0  0  0  0  0  0  0  0  0  0  0  0
    2.4223   -1.2083    0.0000 C   0  0  0  0  0  0  0  0  0  0  0  0
    3.1368   -1.6208    0.0000 C   0  0  0  0  0  0  0  0  0  0  0  0
    3.8512   -1.2083    0.0000 C   0  0  0  0  0  0  0  0  0  0  0  0
    4.5657   -1.6208    0.0000 O   0  0  0  0  0  0  0  0  0  0  0  0
    3.8512   -0.3833    0.0000 O   0  0  0  0  0  0  0  0  0  0  0  0
    3.1368   -2.4458    0.0000 C   0  0  0  0  0  0  0  0  0  0  0  0
    2.4223   -2.8583    0.0000 C   0  0  0  0  0  0  0  0  0  0  0  0
    1.7078   -2.4458    0.0000 C   0  0  0  0  0  0  0  0  0  0  0  0
    0.9232   -2.7008    0.0000 C   0  0  0  0  0  0  0  0  0  0  0  0
    0.6683   -3.4854    0.0000 O   0  0  0  0  0  0  0  0  0  0  0  0
    0.4383   -2.0333    0.0000 O   0  0  0  0  0  0  0  0  0  0  0  0
  1  2  2  0  0  0  0
  3  2  1  0  0  0  0
  3  4  2  0  0  0  0
  4  5  1  0  0  0  0
  5  6  1  0  0  0  0
  6  7  1  0  0  0  0
  6  8  2  0  0  0  0
  5  9  2  0  0  0  0
  9 10  1  0  0  0  0
 10 11  2  0  0  0  0
 11  3  1  0  0  0  0
 12 11  1  0  0  0  0
 12 13  2  0  0  0  0
 14 12  1  0  0  0  0
  2 14  1  0  0  0  0
M  END
> <ChemID>
100818

> <CAS>
552-30-7

> <Original_SMILES>
OC(=O)c1cc2c(cc1)C(=O)OC2=O

> <preferred_name>
Trimellitic anhydride

> <dsstox_substance_id>
DTXSID7026235

> <dsstox_compound_id>
DTXCID906235

> <qc_level>
DSSTox_Low

> <Canonical_QSARr>
OC(=O)C1C=C2C(=CC=1)C(=O)OC2=O

> <InChI_Code_QSARr>
InChI=1S/C9H4O5/c10-7(11)4-1-2-5-6(3-4)9(13)14-8(5)12/h1-3H,(H,10,11)

> <InChI Key_QSARr>
SRPWOOOHEPICQU-UHFFFAOYSA-N

> <Salt_Solvent>


> <Salt_Solvent_ID>
0

> <MPID>
100823

> <Tr_1_Tst_0>
1

> <Ready_Biodeg>
1.0

$$$$
Row798
  Mrv171c012251911052D          

  9  9  0  0  0  0            999 V2000
    2.8587   -0.1833    0.0000 Cl  0  0  0  0  0  0  0  0  0  0  0  0
    2.1442   -0.5958    0.0000 C   0  0  0  0  0  0  0  0  0  0  0  0
    1.4298   -0.1833    0.0000 C   0  0  0  0  0  0  0  0  0  0  0  0
    1.4298    0.6417    0.0000 N   0  0  0  0  0  0  0  0  0  0  0  0
    0.7153   -0.5958    0.0000 C   0  0  0  0  0  0  0  0  0  0  0  0
    0.7153   -1.4208    0.0000 C   0  0  0  0  0  0  0  0  0  0  0  0
    1.4298   -1.8333    0.0000 C   0  0  0  0  0  0  0  0  0  0  0  0
    1.4298   -2.6583    0.0000 Cl  0  0  0  0  0  0  0  0  0  0  0  0
    2.1442   -1.4208    0.0000 C   0  0  0  0  0  0  0  0  0  0  0  0
  1  2  1  0  0  0  0
  3  2  1  0  0  0  0
  3  4  1  0  0  0  0
  5  3  2  0  0  0  0
  6  5  1  0  0  0  0
  7  6  2  0  0  0  0
  7  8  1  0  0  0  0
  9  7  1  0  0  0  0
  2  9  2  0  0  0  0
M  END
> <ChemID>
100819

> <CAS>
554-00-7

> <Original_SMILES>
Nc1ccc(Cl)cc1Cl

> <preferred_name>
2,4-Dichloroaniline

> <dsstox_substance_id>
DTXSID1024966

> <dsstox_compound_id>
DTXCID404966

> <qc_level>
DSSTox_Low

> <Canonical_QSARr>
NC1=CC=C(Cl)C=C1Cl

> <InChI_Code_QSARr>
InChI=1S/C6H5Cl2N/c7-4-1-2-6(9)5(8)3-4/h1-3H,9H2

> <InChI Key_QSARr>
KQCMTOWTPBNWDB-UHFFFAOYSA-N

> <Salt_Solvent>


> <Salt_Solvent_ID>
0

> <MPID>
100824

> <Tr_1_Tst_0>
1

> <Ready_Biodeg>
0.0

$$$$
Row799
  Mrv171c012251911052D          

 10 10  0  0  0  0            999 V2000
    2.8524   -2.6048    0.0000 O   0  0  0  0  0  0  0  0  0  0  0  0
    2.1380   -2.1923    0.0000 C   0  0  0  0  0  0  0  0  0  0  0  0
    2.1380   -1.3673    0.0000 C   0  0  0  0  0  0  0  0  0  0  0  0
    1.4235   -0.9548    0.0000 C   0  0  0  0  0  0  0  0  0  0  0  0
    1.4235   -0.1298    0.0000 N   0  3  0  0  0  0  0  0  0  0  0  0
    0.7090    0.2827    0.0000 O   0  0  0  0  0  0  0  0  0  0  0  0
    2.1380    0.2827    0.0000 O   0  5  0  0  0  0  0  0  0  0  0  0
    0.7090   -1.3673    0.0000 C   0  0  0  0  0  0  0  0  0  0  0  0
    0.7090   -2.1923    0.0000 C   0  0  0  0  0  0  0  0  0  0  0  0
    1.4235   -2.6048    0.0000 C   0  0  0  0  0  0  0  0  0  0  0  0
  1  2  1  0  0  0  0
  3  2  1  0  0  0  0
  4  3  2  0  0  0  0
  4  5  1  0  0  0  0
  5  6  2  0  0  0  0
  5  7  1  0  0  0  0
  8  4  1  0  0  0  0
  9  8  2  0  0  0  0
 10  9  1  0  0  0  0
  2 10  2  0  0  0  0
M  CHG  2   5   1   7  -1
M  END
> <ChemID>
100820

> <CAS>
554-84-7

> <Original_SMILES>
[O-][N+](=O)c1cccc(O)c1

> <preferred_name>
3-Nitrophenol

> <dsstox_substance_id>
DTXSID2025765

> <dsstox_compound_id>
DTXCID705765

> <qc_level>
DSSTox_Low

> <Canonical_QSARr>
[O-][N+](=O)C1C=CC=C(O)C=1

> <InChI_Code_QSARr>
InChI=1S/C6H5NO3/c8-6-3-1-2-5(4-6)7(9)10/h1-4,8H

> <InChI Key_QSARr>
RTZZCYNQPHTPPL-UHFFFAOYSA-N

> <Salt_Solvent>


> <Salt_Solvent_ID>
0

> <MPID>
100825

> <Tr_1_Tst_0>
0

> <Ready_Biodeg>
1.0

$$$$
Row800
  Mrv171c012251911052D          

 11 11  0  0  0  0            999 V2000
    0.7794    0.2250    0.0000 C   0  0  0  0  0  0  0  0  0  0  0  0
    0.0649   -0.1875    0.0000 N   0  3  0  0  0  0  0  0  0  0  0  0
    0.0649   -1.0125    0.0000 O   0  5  0  0  0  0  0  0  0  0  0  0
   -0.6495    0.2250    0.0000 O   0  0  0  0  0  0  0  0  0  0  0  0
    1.4939   -0.1875    0.0000 C   0  0  0  0  0  0  0  0  0  0  0  0
    2.2084    0.2250    0.0000 C   0  0  0  0  0  0  0  0  0  0  0  0
    2.2084    1.0500    0.0000 C   0  0  0  0  0  0  0  0  0  0  0  0
    1.4939    1.4625    0.0000 C   0  0  0  0  0  0  0  0  0  0  0  0
    1.4939    2.2875    0.0000 O   0  0  0  0  0  0  0  0  0  0  0  0
    0.7794    2.7000    0.0000 C   0  0  0  0  0  0  0  0  0  0  0  0
    0.7794    1.0500    0.0000 C   0  0  0  0  0  0  0  0  0  0  0  0
  1  2  1  0  0  0  0
  2  3  1  0  0  0  0
  2  4  2  0  0  0  0
  5  1  1  0  0  0  0
  6  5  2  0  0  0  0
  7  6  1  0  0  0  0
  8  7  2  0  0  0  0
  8  9  1  0  0  0  0
  9 10  1  0  0  0  0
 11  8  1  0  0  0  0
  1 11  2  0  0  0  0
M  CHG  2   2   1   3  -1
M  END
> <ChemID>
100821

> <CAS>
555-03-3

> <Original_SMILES>
COc1cc(ccc1)[N+]([O-])=O

> <preferred_name>
Benzene, 1-methoxy-3-nitro-

> <dsstox_substance_id>
DTXSID3060295

> <dsstox_compound_id>
DTXCID3041900

> <qc_level>
Public_High

> <Canonical_QSARr>
COC1C=C(C=CC=1)[N+]([O-])=O

> <InChI_Code_QSARr>
InChI=1S/C7H7NO3/c1-11-7-4-2-3-6(5-7)8(9)10/h2-5H,1H3

> <InChI Key_QSARr>
WGYFINWERLNPHR-UHFFFAOYSA-N

> <Salt_Solvent>


> <Salt_Solvent_ID>
0

> <MPID>
100826

> <Tr_1_Tst_0>
1

> <Ready_Biodeg>
0.0

$$$$
Row801
  Mrv171c012251911052D          

 17 17  0  0  0  0            999 V2000
    2.5625   -1.4010    0.0000 C   0  0  0  0  0  0  0  0  0  0  0  0
    2.5625   -0.5760    0.0000 O   0  0  0  0  0  0  0  0  0  0  0  0
    1.8481   -1.8135    0.0000 N   0  0  0  0  0  0  0  0  0  0  0  0
    1.8481   -2.6385    0.0000 C   0  0  0  0  0  0  0  0  0  0  0  0
    1.1336   -1.4010    0.0000 C   0  0  0  0  0  0  0  0  0  0  0  0
    0.4191   -1.8135    0.0000 C   0  0  0  0  0  0  0  0  0  0  0  0
   -0.2954   -1.4010    0.0000 C   0  0  0  0  0  0  0  0  0  0  0  0
   -1.0098   -1.8135    0.0000 C   0  0  0  0  0  0  0  0  0  0  0  0
    3.2770   -1.8135    0.0000 N   0  0  0  0  0  0  0  0  0  0  0  0
    3.9915   -1.4010    0.0000 C   0  0  0  0  0  0  0  0  0  0  0  0
    4.7059   -1.8135    0.0000 C   0  0  0  0  0  0  0  0  0  0  0  0
    5.4204   -1.4010    0.0000 C   0  0  0  0  0  0  0  0  0  0  0  0
    5.4204   -0.5760    0.0000 C   0  0  0  0  0  0  0  0  0  0  0  0
    6.1349   -0.1635    0.0000 Cl  0  0  0  0  0  0  0  0  0  0  0  0
    4.7059   -0.1635    0.0000 C   0  0  0  0  0  0  0  0  0  0  0  0
    4.7059    0.6615    0.0000 Cl  0  0  0  0  0  0  0  0  0  0  0  0
    3.9915   -0.5760    0.0000 C   0  0  0  0  0  0  0  0  0  0  0  0
  1  2  2  0  0  0  0
  1  3  1  0  0  0  0
  3  4  1  0  0  0  0
  3  5  1  0  0  0  0
  5  6  1  0  0  0  0
  6  7  1  0  0  0  0
  7  8  1  0  0  0  0
  1  9  1  0  0  0  0
  9 10  1  0  0  0  0
 11 10  1  0  0  0  0
 12 11  2  0  0  0  0
 13 12  1  0  0  0  0
 13 14  1  0  0  0  0
 15 13  2  0  0  0  0
 15 16  1  0  0  0  0
 17 15  1  0  0  0  0
 10 17  2  0  0  0  0
M  END
> <ChemID>
100822

> <CAS>
555-37-3

> <Original_SMILES>
CCCCN(C)C(=O)Nc1cc(Cl)c(Cl)cc1

> <preferred_name>
Neburon

> <dsstox_substance_id>
DTXSID4042200

> <dsstox_compound_id>
DTXCID2022200

> <qc_level>
DSSTox_Low

> <Canonical_QSARr>
CCCCN(C)C(=O)NC1=CC(Cl)=C(Cl)C=C1

> <InChI_Code_QSARr>
InChI=1S/C12H16Cl2N2O/c1-3-4-7-16(2)12(17)15-9-5-6-10(13)11(14)8-9/h5-6,8H,3-4,7H2,1-2H3,(H,15,17)

> <InChI Key_QSARr>
CCGPUGMWYLICGL-UHFFFAOYSA-N

> <Salt_Solvent>


> <Salt_Solvent_ID>
0

> <MPID>
100827

> <Tr_1_Tst_0>
1

> <Ready_Biodeg>
0.0

$$$$
Row802
  Mrv171c012251911052D          

 29 28  0  0  0  0            999 V2000
   -0.1042   -0.0159    0.0000 C   0  0  0  0  0  0  0  0  0  0  0  0
    0.6103   -0.4284    0.0000 C   0  0  0  0  0  0  0  0  0  0  0  0
    1.3248   -0.0159    0.0000 C   0  0  0  0  0  0  0  0  0  0  0  0
    2.0392   -0.4284    0.0000 C   0  0  0  0  0  0  0  0  0  0  0  0
    2.7537   -0.0159    0.0000 C   0  0  0  0  0  0  0  0  0  0  0  0
    3.4682   -0.4284    0.0000 C   0  0  0  0  0  0  0  0  0  0  0  0
    4.1826   -0.0159    0.0000 C   0  0  0  0  0  0  0  0  0  0  0  0
    4.8971   -0.4284    0.0000 C   0  0  0  0  0  0  0  0  0  0  0  0
    5.6116   -0.0159    0.0000 C   0  0  0  0  0  0  0  0  0  0  0  0
    6.3260   -0.4284    0.0000 C   0  0  0  0  0  0  0  0  0  0  0  0
    7.0405   -0.0159    0.0000 C   0  0  0  0  0  0  0  0  0  0  0  0
    7.7550   -0.4284    0.0000 C   0  0  0  0  0  0  0  0  0  0  0  0
    8.4695   -0.0159    0.0000 C   0  0  0  0  0  0  0  0  0  0  0  0
    9.1839   -0.4284    0.0000 C   0  0  0  0  0  0  0  0  0  0  0  0
    9.8984   -0.0159    0.0000 C   0  0  0  0  0  0  0  0  0  0  0  0
   10.6129   -0.4284    0.0000 C   0  0  0  0  0  0  0  0  0  0  0  0
   11.3273   -0.0159    0.0000 C   0  0  0  0  0  0  0  0  0  0  0  0
   12.0418   -0.4284    0.0000 C   0  0  0  0  0  0  0  0  0  0  0  0
   12.7563   -0.0159    0.0000 C   0  0  0  0  0  0  0  0  0  0  0  0
   13.4708   -0.4284    0.0000 C   0  0  0  0  0  0  0  0  0  0  0  0
   14.1852   -0.0159    0.0000 C   0  0  0  0  0  0  0  0  0  0  0  0
   14.8997   -0.4284    0.0000 C   0  0  0  0  0  0  0  0  0  0  0  0
   15.6142   -0.0159    0.0000 C   0  0  0  0  0  0  0  0  0  0  0  0
   16.3286   -0.4284    0.0000 C   0  0  0  0  0  0  0  0  0  0  0  0
   17.0431   -0.0159    0.0000 C   0  0  0  0  0  0  0  0  0  0  0  0
   17.7576   -0.4284    0.0000 C   0  0  0  0  0  0  0  0  0  0  0  0
   18.4721   -0.0159    0.0000 C   0  0  0  0  0  0  0  0  0  0  0  0
   19.1865   -0.4284    0.0000 C   0  0  0  0  0  0  0  0  0  0  0  0
   19.9010   -0.0159    0.0000 O   0  0  0  0  0  0  0  0  0  0  0  0
  1  2  1  0  0  0  0
  2  3  1  0  0  0  0
  3  4  1  0  0  0  0
  4  5  1  0  0  0  0
  5  6  1  0  0  0  0
  6  7  1  0  0  0  0
  7  8  1  0  0  0  0
  8  9  1  0  0  0  0
  9 10  1  0  0  0  0
 10 11  1  0  0  0  0
 11 12  1  0  0  0  0
 12 13  1  0  0  0  0
 13 14  1  0  0  0  0
 14 15  1  0  0  0  0
 15 16  1  0  0  0  0
 16 17  1  0  0  0  0
 17 18  1  0  0  0  0
 18 19  1  0  0  0  0
 19 20  1  0  0  0  0
 20 21  1  0  0  0  0
 21 22  1  0  0  0  0
 22 23  1  0  0  0  0
 23 24  1  0  0  0  0
 24 25  1  0  0  0  0
 25 26  1  0  0  0  0
 26 27  1  0  0  0  0
 27 28  1  0  0  0  0
 28 29  1  0  0  0  0
M  END
> <ChemID>
100823

> <CAS>
557-61-9

> <Original_SMILES>
CCCCCCCCCCCCCCCCCCCCCCCCCCCCO

> <preferred_name>
1-Octacosanol

> <dsstox_substance_id>
DTXSID1025803

> <dsstox_compound_id>
DTXCID305803

> <qc_level>
DSSTox_Low

> <Canonical_QSARr>
CCCCCCCCCCCCCCCCCCCCCCCCCCCCO

> <InChI_Code_QSARr>
InChI=1S/C28H58O/c1-2-3-4-5-6-7-8-9-10-11-12-13-14-15-16-17-18-19-20-21-22-23-24-25-26-27-28-29/h29H,2-28H2,1H3

> <InChI Key_QSARr>
CNNRPFQICPFDPO-UHFFFAOYSA-N

> <Salt_Solvent>


> <Salt_Solvent_ID>
0

> <MPID>
100828

> <Tr_1_Tst_0>
1

> <Ready_Biodeg>
1.0

$$$$
Row803
  Mrv171c012251911052D          

  3  2  0  0  0  0            999 V2000
   -0.7145    0.4125    0.0000 C   0  0  0  0  0  0  0  0  0  0  0  0
    0.0000    0.0000    0.0000 C   0  0  0  0  0  0  0  0  0  0  0  0
    0.7145    0.4125    0.0000 N   0  0  0  0  0  0  0  0  0  0  0  0
  1  2  1  0  0  0  0
  2  3  1  0  0  0  0
M  END
> <ChemID>
100824

> <CAS>
557-66-4

> <Original_SMILES>
Cl.CCN

> <preferred_name>
Ethylamine hydrochloride

> <dsstox_substance_id>
DTXSID8060323

> <dsstox_compound_id>
DTXCID4041943

> <qc_level>
Public_High

> <Canonical_QSARr>
CCN

> <InChI_Code_QSARr>
InChI=1S/C2H7N/c1-2-3/h2-3H2,1H3

> <InChI Key_QSARr>
QUSNBJAOOMFDIB-UHFFFAOYSA-N

> <Salt_Solvent>
Cl

> <Salt_Solvent_ID>
170

> <MPID>
100829

> <Tr_1_Tst_0>
1

> <Ready_Biodeg>
1.0

$$$$
Row804
  Mrv171c012251911052D          

 26 28  0  0  0  0            999 V2000
    5.0293   -7.0191    0.0000 C   0  0  0  0  0  0  0  0  0  0  0  0
    4.3148   -6.6066    0.0000 C   0  0  0  0  0  0  0  0  0  0  0  0
    4.3148   -5.7816    0.0000 C   0  0  0  0  0  0  0  0  0  0  0  0
    3.6004   -5.3691    0.0000 C   0  0  0  0  0  0  0  0  0  0  0  0
    3.6004   -4.5441    0.0000 O   0  0  0  0  0  0  0  0  0  0  0  0
    4.3148   -4.1316    0.0000 P   0  0  0  0  0  0  0  0  0  0  0  0
    5.0293   -3.7191    0.0000 O   0  0  0  0  0  0  0  0  0  0  0  0
    5.0293   -2.8941    0.0000 C   0  0  0  0  0  0  0  0  0  0  0  0
    5.7438   -2.4816    0.0000 C   0  0  0  0  0  0  0  0  0  0  0  0
    5.7438   -1.6566    0.0000 C   0  0  0  0  0  0  0  0  0  0  0  0
    5.0293   -1.2441    0.0000 C   0  0  0  0  0  0  0  0  0  0  0  0
    4.3148   -1.6566    0.0000 C   0  0  0  0  0  0  0  0  0  0  0  0
    3.6004   -1.2441    0.0000 C   0  0  0  0  0  0  0  0  0  0  0  0
    4.3148   -2.4816    0.0000 C   0  0  0  0  0  0  0  0  0  0  0  0
    4.7273   -4.8461    0.0000 O   0  0  0  0  0  0  0  0  0  0  0  0
    5.5523   -4.8461    0.0000 C   0  0  0  0  0  0  0  0  0  0  0  0
    5.9648   -5.5605    0.0000 C   0  0  0  0  0  0  0  0  0  0  0  0
    6.7898   -5.5605    0.0000 C   0  0  0  0  0  0  0  0  0  0  0  0
    7.2023   -4.8461    0.0000 C   0  0  0  0  0  0  0  0  0  0  0  0
    6.7898   -4.1316    0.0000 C   0  0  0  0  0  0  0  0  0  0  0  0
    7.2023   -3.4171    0.0000 C   0  0  0  0  0  0  0  0  0  0  0  0
    5.9648   -4.1316    0.0000 C   0  0  0  0  0  0  0  0  0  0  0  0
    3.9023   -3.4171    0.0000 O   0  0  0  0  0  0  0  0  0  0  0  0
    2.8859   -5.7816    0.0000 C   0  0  0  0  0  0  0  0  0  0  0  0
    2.8859   -6.6066    0.0000 C   0  0  0  0  0  0  0  0  0  0  0  0
    3.6004   -7.0191    0.0000 C   0  0  0  0  0  0  0  0  0  0  0  0
  1  2  1  0  0  0  0
  3  2  1  0  0  0  0
  4  3  2  0  0  0  0
  4  5  1  0  0  0  0
  5  6  1  0  0  0  0
  6  7  1  0  0  0  0
  7  8  1  0  0  0  0
  9  8  1  0  0  0  0
 10  9  2  0  0  0  0
 11 10  1  0  0  0  0
 12 11  2  0  0  0  0
 12 13  1  0  0  0  0
 14 12  1  0  0  0  0
  8 14  2  0  0  0  0
  6 15  1  0  0  0  0
 15 16  1  0  0  0  0
 17 16  1  0  0  0  0
 18 17  2  0  0  0  0
 19 18  1  0  0  0  0
 20 19  2  0  0  0  0
 20 21  1  0  0  0  0
 22 20  1  0  0  0  0
 16 22  2  0  0  0  0
  6 23  2  0  0  0  0
 24  4  1  0  0  0  0
 25 24  2  0  0  0  0
 26 25  1  0  0  0  0
  2 26  2  0  0  0  0
M  END
> <ChemID>
100825

> <CAS>
563-04-2

> <Original_SMILES>
Cc1cc(ccc1)OP(=O)(Oc1cc(C)ccc1)Oc1cc(C)ccc1

> <preferred_name>
Tri-m-tolyl phosphate

> <dsstox_substance_id>
DTXSID4026216

> <dsstox_compound_id>
DTXCID706216

> <qc_level>
DSSTox_Low

> <Canonical_QSARr>
CC1C=C(C=CC=1)OP(=O)(OC1=CC(C)=CC=C1)OC1=CC(C)=CC=C1

> <InChI_Code_QSARr>
InChI=1S/C21H21O4P/c1-16-7-4-10-19(13-16)23-26(22,24-20-11-5-8-17(2)14-20)25-21-12-6-9-18(3)15-21/h4-15H,1-3H3

> <InChI Key_QSARr>
RMLPZKRPSQVRAB-UHFFFAOYSA-N

> <Salt_Solvent>


> <Salt_Solvent_ID>
0

> <MPID>
100830

> <Tr_1_Tst_0>
0

> <Ready_Biodeg>
1.0

$$$$
Row805
  Mrv171c012251911052D          

  5  4  0  0  0  0            999 V2000
    1.5555   -1.8248    0.0000 C   0  0  0  0  0  0  0  0  0  0  0  0
    1.1430   -1.1104    0.0000 C   0  0  0  0  0  0  0  0  0  0  0  0
    1.5555   -0.3959    0.0000 C   0  0  0  0  0  0  0  0  0  0  0  0
    1.1430    0.3186    0.0000 Cl  0  0  0  0  0  0  0  0  0  0  0  0
    0.3180   -1.1104    0.0000 C   0  0  0  0  0  0  0  0  0  0  0  0
  1  2  1  0  0  0  0
  2  3  1  0  0  0  0
  3  4  1  0  0  0  0
  2  5  2  0  0  0  0
M  END
> <ChemID>
100826

> <CAS>
563-47-3

> <Original_SMILES>
CC(=C)CCl

> <preferred_name>
3-Chloro-2-methylpropene

> <dsstox_substance_id>
DTXSID1020279

> <dsstox_compound_id>
DTXCID30279

> <qc_level>
DSSTox_Low

> <Canonical_QSARr>
CC(=C)CCl

> <InChI_Code_QSARr>
InChI=1S/C4H7Cl/c1-4(2)3-5/h1,3H2,2H3

> <InChI Key_QSARr>
OHXAOPZTJOUYKM-UHFFFAOYSA-N

> <Salt_Solvent>


> <Salt_Solvent_ID>
0

> <MPID>
100831

> <Tr_1_Tst_0>
1

> <Ready_Biodeg>
1.0

$$$$
Row806
  Mrv171c012251911052D          

  9  9  0  0  0  0            999 V2000
    2.3959   -0.7881    0.0000 Cl  0  0  0  0  0  0  0  0  0  0  0  0
    1.6815   -1.2006    0.0000 C   0  0  0  0  0  0  0  0  0  0  0  0
    0.9670   -0.7881    0.0000 C   0  0  0  0  0  0  0  0  0  0  0  0
    0.9670    0.0369    0.0000 O   0  0  0  0  0  0  0  0  0  0  0  0
    0.2525   -1.2006    0.0000 C   0  0  0  0  0  0  0  0  0  0  0  0
    0.2525   -2.0256    0.0000 C   0  0  0  0  0  0  0  0  0  0  0  0
    0.9670   -2.4381    0.0000 C   0  0  0  0  0  0  0  0  0  0  0  0
    1.6815   -2.0256    0.0000 C   0  0  0  0  0  0  0  0  0  0  0  0
    2.3959   -2.4381    0.0000 Cl  0  0  0  0  0  0  0  0  0  0  0  0
  1  2  1  0  0  0  0
  3  2  1  0  0  0  0
  3  4  1  0  0  0  0
  5  3  2  0  0  0  0
  6  5  1  0  0  0  0
  7  6  2  0  0  0  0
  8  7  1  0  0  0  0
  2  8  2  0  0  0  0
  8  9  1  0  0  0  0
M  END
> <ChemID>
100827

> <CAS>
576-24-9

> <Original_SMILES>
Oc1cccc(Cl)c1Cl

> <preferred_name>
2,3-Dichlorophenol

> <dsstox_substance_id>
DTXSID7025001

> <dsstox_compound_id>
DTXCID905001

> <qc_level>
DSSTox_Low

> <Canonical_QSARr>
OC1=CC=CC(Cl)=C1Cl

> <InChI_Code_QSARr>
InChI=1S/C6H4Cl2O/c7-4-2-1-3-5(9)6(4)8/h1-3,9H

> <InChI Key_QSARr>
UMPSXRYVXUPCOS-UHFFFAOYSA-N

> <Salt_Solvent>


> <Salt_Solvent_ID>
0

> <MPID>
100832

> <Tr_1_Tst_0>
1

> <Ready_Biodeg>
0.0

$$$$
Row807
  Mrv171c012251911052D          

 12 12  0  0  0  0            999 V2000
    1.9300   -1.6157    0.0000 C   0  0  0  0  0  0  0  0  0  0  0  0
    2.6444   -1.2032    0.0000 C   0  0  0  0  0  0  0  0  0  0  0  0
    3.3589   -1.6157    0.0000 C   0  0  0  0  0  0  0  0  0  0  0  0
    2.6444   -0.3782    0.0000 C   0  0  0  0  0  0  0  0  0  0  0  0
    1.2155   -1.2032    0.0000 C   0  0  0  0  0  0  0  0  0  0  0  0
    1.2155   -0.3782    0.0000 C   0  0  0  0  0  0  0  0  0  0  0  0
    0.5010    0.0343    0.0000 C   0  0  0  0  0  0  0  0  0  0  0  0
    1.9300    0.0343    0.0000 C   0  0  0  0  0  0  0  0  0  0  0  0
    0.5010   -1.6157    0.0000 C   0  0  0  0  0  0  0  0  0  0  0  0
    0.5010   -2.4407    0.0000 C   0  0  0  0  0  0  0  0  0  0  0  0
    1.2155   -2.8532    0.0000 C   0  0  0  0  0  0  0  0  0  0  0  0
    1.9300   -2.4407    0.0000 C   0  0  0  0  0  0  0  0  0  0  0  0
  1  2  1  0  0  0  0
  2  3  1  0  0  0  0
  2  4  1  0  0  0  0
  5  1  1  0  0  0  0
  5  6  1  0  0  0  0
  6  7  1  0  0  0  0
  6  8  1  0  0  0  0
  9  5  2  0  0  0  0
 10  9  1  0  0  0  0
 11 10  2  0  0  0  0
 12 11  1  0  0  0  0
  1 12  2  0  0  0  0
M  END
> <ChemID>
100829

> <CAS>
577-55-9

> <Original_SMILES>
CC(C)c1ccccc1C(C)C

> <preferred_name>


> <dsstox_substance_id>
DTXSID30860336

> <dsstox_compound_id>
DTXCID007858

> <qc_level>


> <Canonical_QSARr>
CC(C)C1=CC=CC=C1C(C)C

> <InChI_Code_QSARr>
InChI=1S/C12H18/c1-9(2)11-7-5-6-8-12(11)10(3)4/h5-10H,1-4H3

> <InChI Key_QSARr>
OKIRBHVFJGXOIS-UHFFFAOYSA-N

> <Salt_Solvent>


> <Salt_Solvent_ID>
0

> <MPID>
100833

> <Tr_1_Tst_0>
1

> <Ready_Biodeg>
0.0

$$$$
Row808
  Mrv171c012251911052D          

 19 20  0  0  0  0            999 V2000
   -2.1434    0.4125    0.0000 O   0  0  0  0  0  0  0  0  0  0  0  0
   -1.4290    0.0000    0.0000 S   0  0  0  0  0  0  0  0  0  0  0  0
   -0.7145   -0.4125    0.0000 C   0  0  0  0  0  0  0  0  0  0  0  0
   -0.0000    0.0000    0.0000 C   0  0  0  0  0  0  0  0  0  0  0  0
    0.7145   -0.4125    0.0000 C   0  0  0  0  0  0  0  0  0  0  0  0
    1.4289    0.0000    0.0000 C   0  0  0  0  0  0  0  0  0  0  0  0
    2.1434   -0.4125    0.0000 C   0  0  0  0  0  0  0  0  0  0  0  0
    2.1434   -1.2375    0.0000 C   0  0  0  0  0  0  0  0  0  0  0  0
    1.4289   -1.6500    0.0000 C   0  0  0  0  0  0  0  0  0  0  0  0
    0.7145   -1.2375    0.0000 C   0  0  0  0  0  0  0  0  0  0  0  0
   -0.0000   -1.6500    0.0000 C   0  0  0  0  0  0  0  0  0  0  0  0
   -0.0000   -2.4750    0.0000 O   0  0  0  0  0  0  0  0  0  0  0  0
   -0.7145   -1.2375    0.0000 C   0  0  0  0  0  0  0  0  0  0  0  0
    2.8579    0.0000    0.0000 S   0  0  0  0  0  0  0  0  0  0  0  0
    3.5723    0.4125    0.0000 O   0  0  0  0  0  0  0  0  0  0  0  0
    3.2704   -0.7145    0.0000 O   0  0  0  0  0  0  0  0  0  0  0  0
    2.4454    0.7145    0.0000 O   0  0  0  0  0  0  0  0  0  0  0  0
   -1.8415   -0.7145    0.0000 O   0  0  0  0  0  0  0  0  0  0  0  0
   -1.0165    0.7145    0.0000 O   0  0  0  0  0  0  0  0  0  0  0  0
  1  2  2  0  0  0  0
  2  3  1  0  0  0  0
  4  3  1  0  0  0  0
  5  4  2  0  0  0  0
  5  6  1  0  0  0  0
  6  7  2  0  0  0  0
  7  8  1  0  0  0  0
  8  9  2  0  0  0  0
  9 10  1  0  0  0  0
 10  5  1  0  0  0  0
 11 10  2  0  0  0  0
 11 12  1  0  0  0  0
 13 11  1  0  0  0  0
  3 13  2  0  0  0  0
  7 14  1  0  0  0  0
 14 15  1  0  0  0  0
 14 16  2  0  0  0  0
 14 17  2  0  0  0  0
  2 18  1  0  0  0  0
  2 19  2  0  0  0  0
M  END
> <ChemID>
100830

> <CAS>
578-85-8

> <Original_SMILES>
Oc1cc(cc2cc(ccc12)S(O)(=O)=O)S(O)(=O)=O

> <preferred_name>
2,7-Naphthalenedisulfonic acid, 4-hydroxy-

> <dsstox_substance_id>
DTXSID3060370

> <dsstox_compound_id>
DTXCID3042263

> <qc_level>
Public_High

> <Canonical_QSARr>
OC1C=C(C=C2C=C(C=CC=12)S(O)(=O)=O)S(O)(=O)=O

> <InChI_Code_QSARr>
InChI=1S/C10H8O7S2/c11-10-5-8(19(15,16)17)4-6-3-7(18(12,13)14)1-2-9(6)10/h1-5,11H,(H,12,13,14)(H,15,16,17)

> <InChI Key_QSARr>
TZBROGJRQUABOK-UHFFFAOYSA-N

> <Salt_Solvent>


> <Salt_Solvent_ID>
0

> <MPID>
100834

> <Tr_1_Tst_0>
0

> <Ready_Biodeg>
1.0

$$$$
Row809
  Mrv171c012251911052D          

 11 11  0  0  0  0            999 V2000
    0.3248    1.2375    0.0000 C   0  0  0  0  0  0  0  0  0  0  0  0
   -0.3897    0.8250    0.0000 C   0  0  0  0  0  0  0  0  0  0  0  0
   -0.3897   -0.0000    0.0000 C   0  0  0  0  0  0  0  0  0  0  0  0
    0.3248   -0.4125    0.0000 C   0  0  0  0  0  0  0  0  0  0  0  0
    1.0392    0.0000    0.0000 C   0  0  0  0  0  0  0  0  0  0  0  0
    1.0392    0.8250    0.0000 C   0  0  0  0  0  0  0  0  0  0  0  0
    0.3248    2.0625    0.0000 N   0  0  0  0  0  0  0  0  0  0  0  0
   -0.3897    2.4750    0.0000 C   0  0  0  0  0  0  0  0  0  0  0  0
    1.0392    2.4750    0.0000 C   0  0  0  0  0  0  0  0  0  0  0  0
    1.0392    3.3000    0.0000 O   0  0  0  0  0  0  0  0  0  0  0  0
    1.7537    2.0625    0.0000 C   0  0  0  0  0  0  0  0  0  0  0  0
  2  1  1  0  0  0  0
  3  2  2  0  0  0  0
  4  3  1  0  0  0  0
  5  4  2  0  0  0  0
  6  5  1  0  0  0  0
  1  6  2  0  0  0  0
  1  7  1  0  0  0  0
  7  8  1  0  0  0  0
  7  9  1  0  0  0  0
  9 10  2  0  0  0  0
  9 11  1  0  0  0  0
M  END
> <ChemID>
100831

> <CAS>
579-10-2

> <Original_SMILES>
CC(=O)N(C)c1ccccc1

> <preferred_name>
Acetamide, N-methyl-N-phenyl-

> <dsstox_substance_id>
DTXSID8060373

> <dsstox_compound_id>
DTXCID7042279

> <qc_level>
Public_High

> <Canonical_QSARr>
CC(=O)N(C)C1C=CC=CC=1

> <InChI_Code_QSARr>
InChI=1S/C9H11NO/c1-8(11)10(2)9-6-4-3-5-7-9/h3-7H,1-2H3

> <InChI Key_QSARr>
LMTGCJANOQOGPI-UHFFFAOYSA-N

> <Salt_Solvent>


> <Salt_Solvent_ID>
0

> <MPID>
100835

> <Tr_1_Tst_0>
1

> <Ready_Biodeg>
0.0

$$$$
Row810
  Mrv171c012251911052D          

 11 11  0  0  0  0            999 V2000
    2.0135    0.7875    0.0000 C   0  0  0  0  0  0  0  0  0  0  0  0
    1.2990    1.2000    0.0000 O   0  0  0  0  0  0  0  0  0  0  0  0
    0.5846    0.7875    0.0000 C   0  0  0  0  0  0  0  0  0  0  0  0
   -0.1299    1.2000    0.0000 C   0  0  0  0  0  0  0  0  0  0  0  0
   -0.1299    2.0250    0.0000 C   0  0  0  0  0  0  0  0  0  0  0  0
   -0.8444    2.4375    0.0000 O   0  0  0  0  0  0  0  0  0  0  0  0
    0.5846    2.4375    0.0000 O   0  0  0  0  0  0  0  0  0  0  0  0
   -0.8444    0.7875    0.0000 C   0  0  0  0  0  0  0  0  0  0  0  0
   -0.8444   -0.0375    0.0000 C   0  0  0  0  0  0  0  0  0  0  0  0
   -0.1299   -0.4500    0.0000 C   0  0  0  0  0  0  0  0  0  0  0  0
    0.5846   -0.0375    0.0000 C   0  0  0  0  0  0  0  0  0  0  0  0
  1  2  1  0  0  0  0
  2  3  1  0  0  0  0
  4  3  1  0  0  0  0
  4  5  1  0  0  0  0
  5  6  1  0  0  0  0
  5  7  2  0  0  0  0
  8  4  2  0  0  0  0
  9  8  1  0  0  0  0
 10  9  2  0  0  0  0
 11 10  1  0  0  0  0
  3 11  2  0  0  0  0
M  END
> <ChemID>
100832

> <CAS>
579-75-9

> <Original_SMILES>
COc1ccccc1C(O)=O

> <preferred_name>
Benzoic acid, 2-methoxy-

> <dsstox_substance_id>
DTXSID3060376

> <dsstox_compound_id>
DTXCID6042282

> <qc_level>
Public_High

> <Canonical_QSARr>
COC1=CC=CC=C1C(O)=O

> <InChI_Code_QSARr>
InChI=1S/C8H8O3/c1-11-7-5-3-2-4-6(7)8(9)10/h2-5H,1H3,(H,9,10)

> <InChI Key_QSARr>
ILUJQPXNXACGAN-UHFFFAOYSA-N

> <Salt_Solvent>


> <Salt_Solvent_ID>
0

> <MPID>
100836

> <Tr_1_Tst_0>
1

> <Ready_Biodeg>
1.0

$$$$
Row811
  Mrv171c012251911052D          

 12 13  0  0  0  0            999 V2000
   -0.0000   -0.4125    0.0000 C   0  0  0  0  0  0  0  0  0  0  0  0
   -0.7145    0.0000    0.0000 C   0  0  0  0  0  0  0  0  0  0  0  0
   -1.4289   -0.4125    0.0000 C   0  0  0  0  0  0  0  0  0  0  0  0
   -1.4289   -1.2375    0.0000 C   0  0  0  0  0  0  0  0  0  0  0  0
   -0.7145   -1.6500    0.0000 C   0  0  0  0  0  0  0  0  0  0  0  0
   -0.0000   -1.2375    0.0000 C   0  0  0  0  0  0  0  0  0  0  0  0
    0.7145   -1.6500    0.0000 C   0  0  0  0  0  0  0  0  0  0  0  0
    1.4289   -1.2375    0.0000 C   0  0  0  0  0  0  0  0  0  0  0  0
    2.1434   -1.6500    0.0000 C   0  0  0  0  0  0  0  0  0  0  0  0
    1.4289   -0.4125    0.0000 C   0  0  0  0  0  0  0  0  0  0  0  0
    2.1434    0.0000    0.0000 C   0  0  0  0  0  0  0  0  0  0  0  0
    0.7145    0.0000    0.0000 C   0  0  0  0  0  0  0  0  0  0  0  0
  2  1  1  0  0  0  0
  3  2  2  0  0  0  0
  4  3  1  0  0  0  0
  5  4  2  0  0  0  0
  6  5  1  0  0  0  0
  6  1  1  0  0  0  0
  7  6  2  0  0  0  0
  8  7  1  0  0  0  0
  8  9  1  0  0  0  0
 10  8  2  0  0  0  0
 10 11  1  0  0  0  0
 12 10  1  0  0  0  0
  1 12  2  0  0  0  0
M  END
> <ChemID>
100833

> <CAS>
581-40-8

> <Original_SMILES>
Cc1cc2ccccc2cc1C

> <preferred_name>
2,3-Dimethylnaphthalene

> <dsstox_substance_id>
DTXSID2060383

> <dsstox_compound_id>
DTXCID6042317

> <qc_level>
Public_High

> <Canonical_QSARr>
CC1C=C2C=CC=CC2=CC=1C

> <InChI_Code_QSARr>
InChI=1S/C12H12/c1-9-7-11-5-3-4-6-12(11)8-10(9)2/h3-8H,1-2H3

> <InChI Key_QSARr>
WWGUMAYGTYQSGA-UHFFFAOYSA-N

> <Salt_Solvent>


> <Salt_Solvent_ID>
0

> <MPID>
100837

> <Tr_1_Tst_0>
1

> <Ready_Biodeg>
1.0

$$$$
Row812
  Mrv171c012251911052D          

 10 11  0  0  0  0            999 V2000
   -0.0016   -0.8236    0.0000 S   0  0  0  0  0  0  0  0  0  0  0  0
    0.8234   -0.8236    0.0000 C   0  0  0  0  0  0  0  0  0  0  0  0
    1.3084   -0.1562    0.0000 N   0  0  0  0  0  0  0  0  0  0  0  0
    2.0930   -0.4111    0.0000 C   0  0  0  0  0  0  0  0  0  0  0  0
    2.8075    0.0014    0.0000 C   0  0  0  0  0  0  0  0  0  0  0  0
    3.5219   -0.4111    0.0000 C   0  0  0  0  0  0  0  0  0  0  0  0
    3.5219   -1.2361    0.0000 C   0  0  0  0  0  0  0  0  0  0  0  0
    2.8075   -1.6486    0.0000 C   0  0  0  0  0  0  0  0  0  0  0  0
    2.0930   -1.2361    0.0000 C   0  0  0  0  0  0  0  0  0  0  0  0
    1.3084   -1.4911    0.0000 N   0  0  0  0  0  0  0  0  0  0  0  0
  1  2  2  0  0  0  0
  3  2  1  0  0  0  0
  4  3  1  0  0  0  0
  4  5  2  0  0  0  0
  5  6  1  0  0  0  0
  6  7  2  0  0  0  0
  7  8  1  0  0  0  0
  8  9  2  0  0  0  0
  9  4  1  0  0  0  0
 10  9  1  0  0  0  0
  2 10  1  0  0  0  0
M  END
> <ChemID>
100834

> <CAS>
583-39-1

> <Original_SMILES>
S=C1Nc2ccccc2N1

> <preferred_name>
2-Mercaptobenzimidazole

> <dsstox_substance_id>
DTXSID9025536

> <dsstox_compound_id>
DTXCID805536

> <qc_level>
DSSTox_Low

> <Canonical_QSARr>
S=C1NC2=CC=CC=C2N1

> <InChI_Code_QSARr>
InChI=1S/C7H6N2S/c10-7-8-5-3-1-2-4-6(5)9-7/h1-4H,(H2,8,9,10)

> <InChI Key_QSARr>
YHMYGUUIMTVXNW-UHFFFAOYSA-N

> <Salt_Solvent>


> <Salt_Solvent_ID>
0

> <MPID>
100838

> <Tr_1_Tst_0>
0

> <Ready_Biodeg>
0.0

$$$$
Row813
  Mrv171c012251911052D          

  9  9  0  0  0  0            999 V2000
    2.8587   -0.1833    0.0000 O   0  0  0  0  0  0  0  0  0  0  0  0
    2.1442   -0.5958    0.0000 C   0  0  0  0  0  0  0  0  0  0  0  0
    1.4298   -0.1833    0.0000 C   0  0  0  0  0  0  0  0  0  0  0  0
    1.4298    0.6417    0.0000 Cl  0  0  0  0  0  0  0  0  0  0  0  0
    0.7153   -0.5958    0.0000 C   0  0  0  0  0  0  0  0  0  0  0  0
    0.7153   -1.4208    0.0000 C   0  0  0  0  0  0  0  0  0  0  0  0
    1.4298   -1.8333    0.0000 C   0  0  0  0  0  0  0  0  0  0  0  0
    1.4298   -2.6583    0.0000 Cl  0  0  0  0  0  0  0  0  0  0  0  0
    2.1442   -1.4208    0.0000 C   0  0  0  0  0  0  0  0  0  0  0  0
  1  2  1  0  0  0  0
  3  2  1  0  0  0  0
  3  4  1  0  0  0  0
  5  3  2  0  0  0  0
  6  5  1  0  0  0  0
  7  6  2  0  0  0  0
  7  8  1  0  0  0  0
  9  7  1  0  0  0  0
  2  9  2  0  0  0  0
M  END
> <ChemID>
100835

> <CAS>
583-78-8

> <Original_SMILES>
Oc1cc(Cl)ccc1Cl

> <preferred_name>
2,5-Dichlorophenol

> <dsstox_substance_id>
DTXSID7025003

> <dsstox_compound_id>
DTXCID705003

> <qc_level>
DSSTox_Low

> <Canonical_QSARr>
OC1=CC(Cl)=CC=C1Cl

> <InChI_Code_QSARr>
InChI=1S/C6H4Cl2O/c7-4-1-2-5(8)6(9)3-4/h1-3,9H

> <InChI Key_QSARr>
RANCECPPZPIPNO-UHFFFAOYSA-N

> <Salt_Solvent>


> <Salt_Solvent_ID>
0

> <MPID>
100839

> <Tr_1_Tst_0>
1

> <Ready_Biodeg>
0.0

$$$$
Row814
  Mrv171c012251911052D          

 13 13  0  0  0  0            999 V2000
    3.4149   -1.5578    0.0000 C   0  0  0  0  0  0  0  0  0  0  0  0
    4.1294   -1.1453    0.0000 C   0  0  0  0  0  0  0  0  0  0  0  0
    2.7004   -1.1453    0.0000 C   0  0  0  0  0  0  0  0  0  0  0  0
    2.7004   -0.3203    0.0000 N   0  0  0  0  0  0  0  0  0  0  0  0
    1.9860    0.0922    0.0000 C   0  0  0  0  0  0  0  0  0  0  0  0
    1.2715    0.5047    0.0000 O   0  0  0  0  0  0  0  0  0  0  0  0
    1.9860   -1.5578    0.0000 C   0  0  0  0  0  0  0  0  0  0  0  0
    1.9860   -2.3828    0.0000 C   0  0  0  0  0  0  0  0  0  0  0  0
    1.2715   -2.7953    0.0000 N   0  0  0  0  0  0  0  0  0  0  0  0
    1.2715   -3.6203    0.0000 C   0  0  0  0  0  0  0  0  0  0  0  0
    1.2715   -4.4453    0.0000 O   0  0  0  0  0  0  0  0  0  0  0  0
    2.7004   -2.7953    0.0000 C   0  0  0  0  0  0  0  0  0  0  0  0
    3.4149   -2.3828    0.0000 C   0  0  0  0  0  0  0  0  0  0  0  0
  1  2  1  0  0  0  0
  3  1  1  0  0  0  0
  3  4  1  0  0  0  0
  4  5  2  0  0  0  0
  5  6  2  0  0  0  0
  7  3  2  0  0  0  0
  8  7  1  0  0  0  0
  8  9  1  0  0  0  0
  9 10  2  0  0  0  0
 10 11  2  0  0  0  0
 12  8  2  0  0  0  0
 13 12  1  0  0  0  0
  1 13  2  0  0  0  0
M  END
> <ChemID>
100836

> <CAS>
584-84-9

> <Original_SMILES>
Cc1ccc(cc1N=C=O)N=C=O

> <preferred_name>
Toluene-2,4-diisocyanate

> <dsstox_substance_id>
DTXSID7026156

> <dsstox_compound_id>
DTXCID901361

> <qc_level>
DSSTox_Low

> <Canonical_QSARr>
CC1=CC=C(C=C1N=C=O)N=C=O

> <InChI_Code_QSARr>
InChI=1S/C9H6N2O2/c1-7-2-3-8(10-5-12)4-9(7)11-6-13/h2-4H,1H3

> <InChI Key_QSARr>
DVKJHBMWWAPEIU-UHFFFAOYSA-N

> <Salt_Solvent>


> <Salt_Solvent_ID>
0

> <MPID>
100840

> <Tr_1_Tst_0>
1

> <Ready_Biodeg>
0.0

$$$$
Row815
  Mrv171c012251911052D          

 11 11  0  0  0  0            999 V2000
    1.4939   -1.4625    0.0000 C   0  0  0  0  0  0  0  0  0  0  0  0
    1.4939   -0.6375    0.0000 O   0  0  0  0  0  0  0  0  0  0  0  0
    0.7794   -0.2250    0.0000 C   0  0  0  0  0  0  0  0  0  0  0  0
    0.7794    0.6000    0.0000 C   0  0  0  0  0  0  0  0  0  0  0  0
    0.0649    1.0125    0.0000 C   0  0  0  0  0  0  0  0  0  0  0  0
    0.0649    1.8375    0.0000 C   0  0  0  0  0  0  0  0  0  0  0  0
   -0.6495    2.2500    0.0000 O   0  0  0  0  0  0  0  0  0  0  0  0
    0.7794    2.2500    0.0000 O   0  0  0  0  0  0  0  0  0  0  0  0
   -0.6495    0.6000    0.0000 C   0  0  0  0  0  0  0  0  0  0  0  0
   -0.6495   -0.2250    0.0000 C   0  0  0  0  0  0  0  0  0  0  0  0
    0.0649   -0.6375    0.0000 C   0  0  0  0  0  0  0  0  0  0  0  0
  1  2  1  0  0  0  0
  2  3  1  0  0  0  0
  4  3  1  0  0  0  0
  5  4  2  0  0  0  0
  5  6  1  0  0  0  0
  6  7  1  0  0  0  0
  6  8  2  0  0  0  0
  9  5  1  0  0  0  0
 10  9  2  0  0  0  0
 11 10  1  0  0  0  0
  3 11  2  0  0  0  0
M  END
> <ChemID>
100837

> <CAS>
586-38-9

> <Original_SMILES>
COc1cc(ccc1)C(O)=O

> <preferred_name>
Benzoic acid, 3-methoxy-

> <dsstox_substance_id>
DTXSID2060410

> <dsstox_compound_id>
DTXCID7042437

> <qc_level>
Public_High

> <Canonical_QSARr>
COC1C=C(C=CC=1)C(O)=O

> <InChI_Code_QSARr>
InChI=1S/C8H8O3/c1-11-7-4-2-3-6(5-7)8(9)10/h2-5H,1H3,(H,9,10)

> <InChI Key_QSARr>
XHQZJYCNDZAGLW-UHFFFAOYSA-N

> <Salt_Solvent>


> <Salt_Solvent_ID>
0

> <MPID>
100841

> <Tr_1_Tst_0>
1

> <Ready_Biodeg>
1.0

$$$$
Row816
  Mrv171c012251911052D          

 11 11  0  0  0  0            999 V2000
    1.9097   -1.6312    0.0000 O   0  5  0  0  0  0  0  0  0  0  0  0
    1.9097   -0.8062    0.0000 N   0  3  0  0  0  0  0  0  0  0  0  0
    2.6242   -0.3937    0.0000 C   0  0  0  0  0  0  0  0  0  0  0  0
    3.3387   -0.8062    0.0000 C   0  0  0  0  0  0  0  0  0  0  0  0
    4.0531   -0.3937    0.0000 C   0  0  0  0  0  0  0  0  0  0  0  0
    4.0531    0.4313    0.0000 C   0  0  0  0  0  0  0  0  0  0  0  0
    3.3387    0.8438    0.0000 C   0  0  0  0  0  0  0  0  0  0  0  0
    3.3387    1.6688    0.0000 C   0  0  0  0  0  0  0  0  0  0  0  0
    2.6242    2.0813    0.0000 C   0  0  0  0  0  0  0  0  0  0  0  0
    2.6242    0.4313    0.0000 C   0  0  0  0  0  0  0  0  0  0  0  0
    1.1953   -0.3937    0.0000 O   0  0  0  0  0  0  0  0  0  0  0  0
  1  2  1  0  0  0  0
  2  3  1  0  0  0  0
  4  3  2  0  0  0  0
  5  4  1  0  0  0  0
  6  5  2  0  0  0  0
  7  6  1  0  0  0  0
  7  8  1  0  0  0  0
  8  9  2  0  0  0  0
 10  7  2  0  0  0  0
  3 10  1  0  0  0  0
  2 11  2  0  0  0  0
M  CHG  2   1  -1   2   1
M  END
> <ChemID>
100838

> <CAS>
586-39-0

> <Original_SMILES>
C=Cc1cc(ccc1)[N+]([O-])=O

> <preferred_name>
3-Nitrostyrene

> <dsstox_substance_id>
DTXSID70207322

> <dsstox_compound_id>
DTXCID70129813

> <qc_level>
Public_Medium

> <Canonical_QSARr>
C=CC1=CC(=CC=C1)[N+]([O-])=O

> <InChI_Code_QSARr>
InChI=1S/C8H7NO2/c1-2-7-4-3-5-8(6-7)9(10)11/h2-6H,1H2

> <InChI Key_QSARr>
SYZVQXIUVGKCBJ-UHFFFAOYSA-N

> <Salt_Solvent>


> <Salt_Solvent_ID>
0

> <MPID>
100842

> <Tr_1_Tst_0>
0

> <Ready_Biodeg>
0.0

$$$$
Row817
  Mrv171c012251911052D          

 11 11  0  0  0  0            999 V2000
    1.6214   -1.6492    0.0000 C   0  0  0  0  0  0  0  0  0  0  0  0
    1.6214   -0.8242    0.0000 C   0  0  0  0  0  0  0  0  0  0  0  0
    2.3359   -0.4117    0.0000 N   0  0  0  0  0  0  0  0  0  0  0  0
    2.3359    0.4133    0.0000 C   0  0  0  0  0  0  0  0  0  0  0  0
    3.0503    0.8258    0.0000 O   0  0  0  0  0  0  0  0  0  0  0  0
    1.6214    0.8258    0.0000 C   0  0  0  0  0  0  0  0  0  0  0  0
    0.9069   -2.0617    0.0000 C   0  0  0  0  0  0  0  0  0  0  0  0
    0.9069   -2.8867    0.0000 C   0  0  0  0  0  0  0  0  0  0  0  0
    1.6214   -3.2992    0.0000 C   0  0  0  0  0  0  0  0  0  0  0  0
    2.3359   -2.8867    0.0000 C   0  0  0  0  0  0  0  0  0  0  0  0
    2.3359   -2.0617    0.0000 C   0  0  0  0  0  0  0  0  0  0  0  0
  1  2  1  0  0  0  0
  2  3  1  0  0  0  0
  3  4  1  0  0  0  0
  4  5  2  0  0  0  0
  4  6  1  0  0  0  0
  7  1  2  0  0  0  0
  8  7  1  0  0  0  0
  9  8  2  0  0  0  0
 10  9  1  0  0  0  0
 11 10  2  0  0  0  0
  1 11  1  0  0  0  0
M  END
> <ChemID>
100839

> <CAS>
588-46-5

> <Original_SMILES>
CC(=O)NCc1ccccc1

> <preferred_name>
N-Benzylacetamide

> <dsstox_substance_id>
DTXSID6052249

> <dsstox_compound_id>
DTXCID5030820

> <qc_level>
DSSTox_Low

> <Canonical_QSARr>
CC(=O)NCC1C=CC=CC=1

> <InChI_Code_QSARr>
InChI=1S/C9H11NO/c1-8(11)10-7-9-5-3-2-4-6-9/h2-6H,7H2,1H3,(H,10,11)

> <InChI Key_QSARr>
UZJLYRRDVFWSGA-UHFFFAOYSA-N

> <Salt_Solvent>


> <Salt_Solvent_ID>
0

> <MPID>
100843

> <Tr_1_Tst_0>
1

> <Ready_Biodeg>
1.0

$$$$
Row818
  Mrv171c012251911052D          

  7  6  0  0  0  0            999 V2000
   -0.1011   -0.7669    0.0000 C   0  0  0  0  0  0  0  0  0  0  0  0
    0.6134   -0.3544    0.0000 C   0  0  0  0  0  0  0  0  0  0  0  0
    1.3279   -0.7669    0.0000 C   0  0  0  0  0  0  0  0  0  0  0  0
    1.3279   -1.5919    0.0000 O   0  0  0  0  0  0  0  0  0  0  0  0
    2.0423   -0.3544    0.0000 C   0  0  0  0  0  0  0  0  0  0  0  0
    2.7568   -0.7669    0.0000 C   0  0  0  0  0  0  0  0  0  0  0  0
    3.4713   -0.3544    0.0000 C   0  0  0  0  0  0  0  0  0  0  0  0
  1  2  1  0  0  0  0
  2  3  1  0  0  0  0
  3  4  2  0  0  0  0
  3  5  1  0  0  0  0
  5  6  1  0  0  0  0
  6  7  1  0  0  0  0
M  END
> <ChemID>
100840

> <CAS>
589-38-8

> <Original_SMILES>
CCC(=O)CCC

> <preferred_name>
3-Hexanone

> <dsstox_substance_id>
DTXSID2021608

> <dsstox_compound_id>
DTXCID501608

> <qc_level>
DSSTox_Low

> <Canonical_QSARr>
CCC(=O)CCC

> <InChI_Code_QSARr>
InChI=1S/C6H12O/c1-3-5-6(7)4-2/h3-5H2,1-2H3

> <InChI Key_QSARr>
PFCHFHIRKBAQGU-UHFFFAOYSA-N

> <Salt_Solvent>


> <Salt_Solvent_ID>
0

> <MPID>
100844

> <Tr_1_Tst_0>
1

> <Ready_Biodeg>
0.0

$$$$
Row819
  Mrv171c012251911052D          

  8  8  0  0  0  0            999 V2000
    0.7145    1.2616    0.0000 C   0  0  0  0  0  0  0  0  0  0  0  0
    0.1842    1.8936    0.0000 C   0  0  0  0  0  0  0  0  0  0  0  0
    1.2448    1.8936    0.0000 C   0  0  0  0  0  0  0  0  0  0  0  0
    0.0000    0.8491    0.0000 C   0  0  0  0  0  0  0  0  0  0  0  0
    0.0000    0.0241    0.0000 C   0  0  0  0  0  0  0  0  0  0  0  0
    0.7145   -0.3884    0.0000 C   0  0  0  0  0  0  0  0  0  0  0  0
    1.4290    0.0241    0.0000 C   0  0  0  0  0  0  0  0  0  0  0  0
    1.4290    0.8491    0.0000 C   0  0  0  0  0  0  0  0  0  0  0  0
  1  2  1  0  0  0  0
  1  3  1  0  0  0  0
  4  1  1  0  0  0  0
  5  4  1  0  0  0  0
  6  5  1  0  0  0  0
  7  6  1  0  0  0  0
  8  7  1  0  0  0  0
  1  8  1  0  0  0  0
M  END
> <ChemID>
100841

> <CAS>
590-66-9

> <Original_SMILES>
CC1(C)CCCCC1

> <preferred_name>
1,1-Dimethylcyclohexane

> <dsstox_substance_id>
DTXSID1074832

> <dsstox_compound_id>
DTXCID2042517

> <qc_level>
Public_High

> <Canonical_QSARr>
CC1(C)CCCCC1

> <InChI_Code_QSARr>
InChI=1S/C8H16/c1-8(2)6-4-3-5-7-8/h3-7H2,1-2H3

> <InChI Key_QSARr>
QEGNUYASOUJEHD-UHFFFAOYSA-N

> <Salt_Solvent>


> <Salt_Solvent_ID>
0

> <MPID>
100845

> <Tr_1_Tst_0>
1

> <Ready_Biodeg>
0.0

$$$$
Row820
  Mrv171c012251911052D          

  8  8  0  0  0  0            999 V2000
    1.4289    0.8250    0.0000 C   0  0  0  0  0  0  0  0  0  0  0  0
    0.7145    1.2375    0.0000 C   0  0  0  0  0  0  0  0  0  0  0  0
    0.7145    2.0625    0.0000 Br  0  0  0  0  0  0  0  0  0  0  0  0
   -0.0000    0.8250    0.0000 C   0  0  0  0  0  0  0  0  0  0  0  0
   -0.0000    0.0000    0.0000 C   0  0  0  0  0  0  0  0  0  0  0  0
    0.7145   -0.4125    0.0000 C   0  0  0  0  0  0  0  0  0  0  0  0
    1.4289   -0.0000    0.0000 C   0  0  0  0  0  0  0  0  0  0  0  0
    2.1434   -0.4125    0.0000 O   0  0  0  0  0  0  0  0  0  0  0  0
  2  1  1  0  0  0  0
  2  3  1  0  0  0  0
  4  2  2  0  0  0  0
  5  4  1  0  0  0  0
  6  5  2  0  0  0  0
  7  6  1  0  0  0  0
  1  7  2  0  0  0  0
  7  8  1  0  0  0  0
M  END
> <ChemID>
100843

> <CAS>
591-20-8

> <Original_SMILES>
Oc1cc(Br)ccc1

> <preferred_name>
Phenol, 3-bromo-

> <dsstox_substance_id>
DTXSID9060449

> <dsstox_compound_id>
DTXCID4042541

> <qc_level>
Public_High

> <Canonical_QSARr>
OC1=CC(Br)=CC=C1

> <InChI_Code_QSARr>
InChI=1S/C6H5BrO/c7-5-2-1-3-6(8)4-5/h1-4,8H

> <InChI Key_QSARr>
MNOJRWOWILAHAV-UHFFFAOYSA-N

> <Salt_Solvent>


> <Salt_Solvent_ID>
0

> <MPID>
100846

> <Tr_1_Tst_0>
0

> <Ready_Biodeg>
0.0

$$$$
Row821
  Mrv171c012251911052D          

  8  8  0  0  0  0            999 V2000
    2.6801   -1.9594    0.0000 O   0  0  0  0  0  0  0  0  0  0  0  0
    1.9657   -1.5469    0.0000 C   0  0  0  0  0  0  0  0  0  0  0  0
    1.9657   -0.7219    0.0000 C   0  0  0  0  0  0  0  0  0  0  0  0
    1.2512   -0.3094    0.0000 C   0  0  0  0  0  0  0  0  0  0  0  0
    1.2512    0.5156    0.0000 N   0  0  0  0  0  0  0  0  0  0  0  0
    0.5367   -0.7219    0.0000 C   0  0  0  0  0  0  0  0  0  0  0  0
    0.5367   -1.5469    0.0000 C   0  0  0  0  0  0  0  0  0  0  0  0
    1.2512   -1.9594    0.0000 C   0  0  0  0  0  0  0  0  0  0  0  0
  1  2  1  0  0  0  0
  3  2  1  0  0  0  0
  4  3  2  0  0  0  0
  4  5  1  0  0  0  0
  6  4  1  0  0  0  0
  7  6  2  0  0  0  0
  8  7  1  0  0  0  0
  2  8  2  0  0  0  0
M  END
> <ChemID>
100844

> <CAS>
591-27-5

> <Original_SMILES>
Nc1cc(O)ccc1

> <preferred_name>
3-Aminophenol

> <dsstox_substance_id>
DTXSID3024497

> <dsstox_compound_id>
DTXCID704497

> <qc_level>
DSSTox_Low

> <Canonical_QSARr>
NC1=CC(O)=CC=C1

> <InChI_Code_QSARr>
InChI=1S/C6H7NO/c7-5-2-1-3-6(8)4-5/h1-4,8H,7H2

> <InChI Key_QSARr>
CWLKGDAVCFYWJK-UHFFFAOYSA-N

> <Salt_Solvent>


> <Salt_Solvent_ID>
0

> <MPID>
100847

> <Tr_1_Tst_0>
1

> <Ready_Biodeg>
0.0

$$$$
Row822
  Mrv171c012251911052D          

  9  9  0  0  0  0            999 V2000
    2.3656   -1.8422    0.0000 C   0  0  0  0  0  0  0  0  0  0  0  0
    3.0801   -2.2547    0.0000 O   0  0  0  0  0  0  0  0  0  0  0  0
    2.3656   -1.0172    0.0000 C   0  0  0  0  0  0  0  0  0  0  0  0
    1.6512   -0.6047    0.0000 C   0  0  0  0  0  0  0  0  0  0  0  0
    1.6512    0.2203    0.0000 Cl  0  0  0  0  0  0  0  0  0  0  0  0
    0.9367   -1.0172    0.0000 C   0  0  0  0  0  0  0  0  0  0  0  0
    0.9367   -1.8422    0.0000 C   0  0  0  0  0  0  0  0  0  0  0  0
    0.2222   -2.2547    0.0000 Cl  0  0  0  0  0  0  0  0  0  0  0  0
    1.6512   -2.2547    0.0000 C   0  0  0  0  0  0  0  0  0  0  0  0
  1  2  1  0  0  0  0
  3  1  2  0  0  0  0
  4  3  1  0  0  0  0
  4  5  1  0  0  0  0
  6  4  2  0  0  0  0
  7  6  1  0  0  0  0
  7  8  1  0  0  0  0
  9  7  2  0  0  0  0
  1  9  1  0  0  0  0
M  END
> <ChemID>
100845

> <CAS>
591-35-5

> <Original_SMILES>
Oc1cc(Cl)cc(Cl)c1

> <preferred_name>
3,5-Dichlorophenol

> <dsstox_substance_id>
DTXSID2025006

> <dsstox_compound_id>
DTXCID905006

> <qc_level>
DSSTox_Low

> <Canonical_QSARr>
OC1C=C(Cl)C=C(Cl)C=1

> <InChI_Code_QSARr>
InChI=1S/C6H4Cl2O/c7-4-1-5(8)3-6(9)2-4/h1-3,9H

> <InChI Key_QSARr>
VPOMSPZBQMDLTM-UHFFFAOYSA-N

> <Salt_Solvent>


> <Salt_Solvent_ID>
0

> <MPID>
100848

> <Tr_1_Tst_0>
1

> <Ready_Biodeg>
0.0

$$$$
Row823
  Mrv171c012251911052D          

 11 10  0  0  0  0            999 V2000
    5.3362    2.5559    0.0000 O   0  0  0  0  0  0  0  0  0  0  0  0
    4.6218    2.1434    0.0000 C   0  0  0  0  0  0  0  0  0  0  0  0
    3.9073    2.5559    0.0000 C   0  0  0  0  0  0  0  0  0  0  0  0
    3.1928    2.1434    0.0000 C   0  0  0  0  0  0  0  0  0  0  0  0
    2.4783    2.5559    0.0000 C   0  0  0  0  0  0  0  0  0  0  0  0
    6.0507    2.1434    0.0000 C   0  0  0  0  0  0  0  0  0  0  0  0
    6.0507    1.3184    0.0000 O   0  0  0  0  0  0  0  0  0  0  0  0
    6.7652    2.5559    0.0000 C   0  0  0  0  0  0  0  0  0  0  0  0
    7.4796    2.1434    0.0000 C   0  0  0  0  0  0  0  0  0  0  0  0
    8.1941    2.5559    0.0000 O   0  0  0  0  0  0  0  0  0  0  0  0
    7.4796    1.3184    0.0000 C   0  0  0  0  0  0  0  0  0  0  0  0
  1  2  1  0  0  0  0
  2  3  1  0  0  0  0
  3  4  1  0  0  0  0
  4  5  1  0  0  0  0
  1  6  1  0  0  0  0
  6  7  2  0  0  0  0
  6  8  1  0  0  0  0
  8  9  1  0  0  0  0
  9 10  2  0  0  0  0
  9 11  1  0  0  0  0
M  END
> <ChemID>
100846

> <CAS>
591-60-6

> <Original_SMILES>
CC(=O)CC(=O)OCCCC

> <preferred_name>
Butanoic acid, 3-oxo-, butyl ester

> <dsstox_substance_id>
DTXSID3060453

> <dsstox_compound_id>
DTXCID4042545

> <qc_level>
Public_High

> <Canonical_QSARr>
CC(=O)CC(=O)OCCCC

> <InChI_Code_QSARr>
InChI=1S/C8H14O3/c1-3-4-5-11-8(10)6-7(2)9/h3-6H2,1-2H3

> <InChI Key_QSARr>
REIYHFWZISXFKU-UHFFFAOYSA-N

> <Salt_Solvent>


> <Salt_Solvent_ID>
0

> <MPID>
100849

> <Tr_1_Tst_0>
1

> <Ready_Biodeg>
1.0

$$$$
Row824
  Mrv171c012251911052D          

  7  6  0  0  0  0            999 V2000
    0.0021   -0.9433    0.0000 C   0  0  0  0  0  0  0  0  0  0  0  0
    0.7166   -0.5308    0.0000 C   0  0  0  0  0  0  0  0  0  0  0  0
    1.4311   -0.9433    0.0000 C   0  0  0  0  0  0  0  0  0  0  0  0
    2.1455   -0.5308    0.0000 C   0  0  0  0  0  0  0  0  0  0  0  0
    2.8600   -0.9433    0.0000 C   0  0  0  0  0  0  0  0  0  0  0  0
    3.5745   -0.5308    0.0000 C   0  0  0  0  0  0  0  0  0  0  0  0
    2.8600   -1.7683    0.0000 O   0  0  0  0  0  0  0  0  0  0  0  0
  1  2  1  0  0  0  0
  2  3  1  0  0  0  0
  3  4  1  0  0  0  0
  4  5  1  0  0  0  0
  5  6  1  0  0  0  0
  5  7  2  0  0  0  0
M  END
> <ChemID>
100847

> <CAS>
591-78-6

> <Original_SMILES>
CCCCC(C)=O

> <preferred_name>
2-Hexanone

> <dsstox_substance_id>
DTXSID0022068

> <dsstox_compound_id>
DTXCID202068

> <qc_level>
DSSTox_Low

> <Canonical_QSARr>
CCCCC(C)=O

> <InChI_Code_QSARr>
InChI=1S/C6H12O/c1-3-4-5-6(2)7/h3-5H2,1-2H3

> <InChI Key_QSARr>
QQZOPKMRPOGIEB-UHFFFAOYSA-N

> <Salt_Solvent>


> <Salt_Solvent_ID>
0

> <MPID>
100850

> <Tr_1_Tst_0>
0

> <Ready_Biodeg>
0.0

$$$$
Row825
  Mrv171c012251911052D          

  6  5  0  0  0  0            999 V2000
    2.1452    0.0006    0.0000 C   0  0  0  0  0  0  0  0  0  0  0  0
    1.4307   -0.4119    0.0000 C   0  0  0  0  0  0  0  0  0  0  0  0
    0.7163    0.0006    0.0000 C   0  0  0  0  0  0  0  0  0  0  0  0
    0.0018   -0.4119    0.0000 C   0  0  0  0  0  0  0  0  0  0  0  0
    2.8597   -0.4119    0.0000 C   0  0  0  0  0  0  0  0  0  0  0  0
    3.5741    0.0006    0.0000 C   0  0  0  0  0  0  0  0  0  0  0  0
  1  2  1  0  0  0  0
  2  3  1  0  0  0  0
  3  4  2  0  0  0  0
  1  5  1  0  0  0  0
  5  6  1  0  0  0  0
M  END
> <ChemID>
100848

> <CAS>
592-41-6

> <Original_SMILES>
CCCCC=C

> <preferred_name>
1-Hexene

> <dsstox_substance_id>
DTXSID4025402

> <dsstox_compound_id>
DTXCID105402

> <qc_level>
DSSTox_Low

> <Canonical_QSARr>
CCCCC=C

> <InChI_Code_QSARr>
InChI=1S/C6H12/c1-3-5-6-4-2/h3H,1,4-6H2,2H3

> <InChI Key_QSARr>
LIKMAJRDDDTEIG-UHFFFAOYSA-N

> <Salt_Solvent>


> <Salt_Solvent_ID>
0

> <MPID>
100851

> <Tr_1_Tst_0>
1

> <Ready_Biodeg>
1.0

$$$$
Row826
  Mrv171c012251911052D          

  6  5  0  0  0  0            999 V2000
    1.2375    0.7145    0.0000 C   0  0  0  0  0  0  0  0  0  0  0  0
    0.8250    0.0000    0.0000 C   0  0  0  0  0  0  0  0  0  0  0  0
    0.0000    0.0000    0.0000 C   0  0  0  0  0  0  0  0  0  0  0  0
   -0.4125   -0.7145    0.0000 C   0  0  0  0  0  0  0  0  0  0  0  0
   -1.2375   -0.7145    0.0000 C   0  0  0  0  0  0  0  0  0  0  0  0
   -1.6500   -1.4289    0.0000 C   0  0  0  0  0  0  0  0  0  0  0  0
  2  1  1  4  0  0  0
  2  3  2  0  0  0  0
  3  4  1  0  0  0  0
  4  5  1  0  0  0  0
  5  6  1  0  0  0  0
M  END
> <ChemID>
100849

> <CAS>
592-43-8

> <Original_SMILES>
C/C=C/CCC

> <preferred_name>
Hexene

> <dsstox_substance_id>
DTXSID10860334

> <dsstox_compound_id>
DTXCID50810070

> <qc_level>
DSSTox_Low

> <Canonical_QSARr>
CC=CCCC

> <InChI_Code_QSARr>
InChI=1S/C6H12/c1-3-5-6-4-2/h3,5H,4,6H2,1-2H3

> <InChI Key_QSARr>
RYPKRALMXUUNKS-UHFFFAOYSA-N

> <Salt_Solvent>


> <Salt_Solvent_ID>
0

> <MPID>
100852

> <Tr_1_Tst_0>
1

> <Ready_Biodeg>
0.0

$$$$
Row827
  Mrv171c012251911052D          

 18 17  0  0  0  0            999 V2000
   -0.0537   -0.4051    0.0000 C   0  0  0  0  0  0  0  0  0  0  0  0
    0.6607    0.0074    0.0000 C   0  0  0  0  0  0  0  0  0  0  0  0
    1.3752   -0.4051    0.0000 C   0  0  0  0  0  0  0  0  0  0  0  0
    2.0897    0.0074    0.0000 C   0  0  0  0  0  0  0  0  0  0  0  0
    2.8042   -0.4051    0.0000 C   0  0  0  0  0  0  0  0  0  0  0  0
    3.5186    0.0074    0.0000 C   0  0  0  0  0  0  0  0  0  0  0  0
    4.2331   -0.4051    0.0000 C   0  0  0  0  0  0  0  0  0  0  0  0
    4.9476    0.0074    0.0000 C   0  0  0  0  0  0  0  0  0  0  0  0
    5.6620   -0.4051    0.0000 C   0  0  0  0  0  0  0  0  0  0  0  0
    6.3765    0.0074    0.0000 C   0  0  0  0  0  0  0  0  0  0  0  0
    7.0910   -0.4051    0.0000 C   0  0  0  0  0  0  0  0  0  0  0  0
    7.8055    0.0074    0.0000 C   0  0  0  0  0  0  0  0  0  0  0  0
    8.5199   -0.4051    0.0000 C   0  0  0  0  0  0  0  0  0  0  0  0
    9.2344    0.0074    0.0000 C   0  0  0  0  0  0  0  0  0  0  0  0
    9.9489   -0.4051    0.0000 C   0  0  0  0  0  0  0  0  0  0  0  0
   10.6633    0.0074    0.0000 C   0  0  0  0  0  0  0  0  0  0  0  0
   11.3778   -0.4051    0.0000 C   0  0  0  0  0  0  0  0  0  0  0  0
   12.0923    0.0074    0.0000 C   0  0  0  0  0  0  0  0  0  0  0  0
  1  2  1  0  0  0  0
  2  3  1  0  0  0  0
  3  4  1  0  0  0  0
  4  5  1  0  0  0  0
  5  6  1  0  0  0  0
  6  7  1  0  0  0  0
  7  8  1  0  0  0  0
  8  9  1  0  0  0  0
  9 10  1  0  0  0  0
 10 11  1  0  0  0  0
 11 12  1  0  0  0  0
 12 13  1  0  0  0  0
 13 14  1  0  0  0  0
 14 15  1  0  0  0  0
 15 16  1  0  0  0  0
 16 17  1  0  0  0  0
 17 18  1  0  0  0  0
M  END
> <ChemID>
100850

> <CAS>
593-45-3

> <Original_SMILES>
CCCCCCCCCCCCCCCCCC

> <preferred_name>
Octadecane

> <dsstox_substance_id>
DTXSID9047172

> <dsstox_compound_id>
DTXCID7027172

> <qc_level>
DSSTox_Low

> <Canonical_QSARr>
CCCCCCCCCCCCCCCCCC

> <InChI_Code_QSARr>
InChI=1S/C18H38/c1-3-5-7-9-11-13-15-17-18-16-14-12-10-8-6-4-2/h3-18H2,1-2H3

> <InChI Key_QSARr>
RZJRJXONCZWCBN-UHFFFAOYSA-N

> <Salt_Solvent>


> <Salt_Solvent_ID>
0

> <MPID>
100853

> <Tr_1_Tst_0>
1

> <Ready_Biodeg>
1.0

$$$$
Row828
  Mrv171c012251911052D          

  5  4  0  0  0  0            999 V2000
    3.2055   -0.7940    0.0000 O   0  0  0  0  0  0  0  0  0  0  0  0
    2.7930   -0.0795    0.0000 C   0  0  0  0  0  0  0  0  0  0  0  0
    3.2055    0.6350    0.0000 C   0  0  0  0  0  0  0  0  0  0  0  0
    2.7930    1.3494    0.0000 C   0  0  0  0  0  0  0  0  0  0  0  0
    1.9680   -0.0795    0.0000 C   0  0  0  0  0  0  0  0  0  0  0  0
  1  2  1  0  0  0  0
  2  3  1  0  0  0  0
  3  4  2  0  0  0  0
  2  5  1  0  0  0  0
M  END
> <ChemID>
100852

> <CAS>
6118-13-4

> <Original_SMILES>
C[C@H](O)C=C

> <preferred_name>
(2S)-but-3-en-2-ol

> <dsstox_substance_id>
DTXSID40426447

> <dsstox_compound_id>
DTXCID20377281

> <qc_level>
Public_Low

> <Canonical_QSARr>
CC(O)C=C

> <InChI_Code_QSARr>
InChI=1S/C4H8O/c1-3-4(2)5/h3-5H,1H2,2H3

> <InChI Key_QSARr>
MKUWVMRNQOOSAT-UHFFFAOYSA-N

> <Salt_Solvent>


> <Salt_Solvent_ID>
0

> <MPID>
100854

> <Tr_1_Tst_0>
0

> <Ready_Biodeg>
1.0

$$$$
Row829
  Mrv171c012251911052D          

  9  9  0  0  0  0            999 V2000
    1.2499   -2.1636    0.0000 C   0  0  0  0  0  0  0  0  0  0  0  0
    1.7348   -2.8310    0.0000 O   0  0  0  0  0  0  0  0  0  0  0  0
    1.5049   -1.3790    0.0000 C   0  0  0  0  0  0  0  0  0  0  0  0
    2.2895   -1.1240    0.0000 O   0  0  0  0  0  0  0  0  0  0  0  0
    0.8374   -0.8941    0.0000 C   0  0  0  0  0  0  0  0  0  0  0  0
    1.3894   -0.2810    0.0000 C   0  0  0  0  0  0  0  0  0  0  0  0
    0.2854   -0.2810    0.0000 C   0  0  0  0  0  0  0  0  0  0  0  0
    0.1700   -1.3790    0.0000 C   0  0  0  0  0  0  0  0  0  0  0  0
    0.4249   -2.1636    0.0000 O   0  0  0  0  0  0  0  0  0  0  0  0
  1  2  2  0  0  0  0
  3  1  1  0  0  0  0
  3  4  1  0  0  0  0
  5  3  1  0  0  0  0
  5  6  1  0  0  0  0
  5  7  1  0  0  0  0
  8  5  1  0  0  0  0
  9  8  1  0  0  0  0
  1  9  1  0  0  0  0
M  END
> <ChemID>
100853

> <CAS>
79-50-5

> <Original_SMILES>
CC1(C)COC(=O)C1O

> <preferred_name>


> <dsstox_substance_id>
DTXSID40861637

> <dsstox_compound_id>
DTXCID90810534

> <qc_level>


> <Canonical_QSARr>
CC1(C)COC(=O)C1O

> <InChI_Code_QSARr>
InChI=1S/C6H10O3/c1-6(2)3-9-5(8)4(6)7/h4,7H,3H2,1-2H3

> <InChI Key_QSARr>
SERHXTVXHNVDKA-UHFFFAOYSA-N

> <Salt_Solvent>


> <Salt_Solvent_ID>
0

> <MPID>
100855

> <Tr_1_Tst_0>
1

> <Ready_Biodeg>
1.0

$$$$
Row830
  Mrv171c012251911052D          

 11 11  0  0  0  0            999 V2000
    0.8444    1.1625    0.0000 C   0  0  0  0  0  0  0  0  0  0  0  0
    1.5588    1.5750    0.0000 N   0  3  0  0  0  0  0  0  0  0  0  0
    2.2733    1.1625    0.0000 O   0  5  0  0  0  0  0  0  0  0  0  0
    1.5588    2.4000    0.0000 O   0  0  0  0  0  0  0  0  0  0  0  0
    0.1299    1.5750    0.0000 C   0  0  0  0  0  0  0  0  0  0  0  0
    0.1299    2.4000    0.0000 O   0  0  0  0  0  0  0  0  0  0  0  0
   -0.5846    1.1625    0.0000 C   0  0  0  0  0  0  0  0  0  0  0  0
   -0.5846    0.3375    0.0000 C   0  0  0  0  0  0  0  0  0  0  0  0
    0.1299   -0.0750    0.0000 C   0  0  0  0  0  0  0  0  0  0  0  0
    0.8444    0.3375    0.0000 C   0  0  0  0  0  0  0  0  0  0  0  0
    1.5588   -0.0750    0.0000 O   0  0  0  0  0  0  0  0  0  0  0  0
  1  2  1  0  0  0  0
  2  3  1  0  0  0  0
  2  4  2  0  0  0  0
  5  1  1  0  0  0  0
  5  6  1  0  0  0  0
  7  5  2  0  0  0  0
  8  7  1  0  0  0  0
  9  8  2  0  0  0  0
 10  9  1  0  0  0  0
  1 10  2  0  0  0  0
 10 11  1  0  0  0  0
M  CHG  2   2   1   3  -1
M  END
> <ChemID>
100854

> <CAS>
601-89-8

> <Original_SMILES>
[O-][N+](=O)c1c(O)cccc1O

> <preferred_name>
1,3-Benzenediol, 2-nitro-

> <dsstox_substance_id>
DTXSID4060525

> <dsstox_compound_id>
DTXCID9042758

> <qc_level>
Public_High

> <Canonical_QSARr>
[O-][N+](=O)C1C(O)=CC=CC=1O

> <InChI_Code_QSARr>
InChI=1S/C6H5NO4/c8-4-2-1-3-5(9)6(4)7(10)11/h1-3,8-9H

> <InChI Key_QSARr>
ZLCPKMIJYMHZMJ-UHFFFAOYSA-N

> <Salt_Solvent>


> <Salt_Solvent_ID>
0

> <MPID>
100856

> <Tr_1_Tst_0>
1

> <Ready_Biodeg>
1.0

$$$$
Row831
  Mrv171c012251911052D          

 15 15  0  0  0  0            999 V2000
    0.6192   -1.2375    0.0000 O   0  0  0  0  0  0  0  0  0  0  0  0
    0.6192   -0.4125    0.0000 C   0  0  0  0  0  0  0  0  0  0  0  0
    1.3337    0.0000    0.0000 C   0  0  0  0  0  0  0  0  0  0  0  0
    2.0481   -0.4125    0.0000 C   0  0  0  0  0  0  0  0  0  0  0  0
    2.7626   -0.0000    0.0000 C   0  0  0  0  0  0  0  0  0  0  0  0
    2.7626    0.8250    0.0000 C   0  0  0  0  0  0  0  0  0  0  0  0
    2.0481    1.2375    0.0000 C   0  0  0  0  0  0  0  0  0  0  0  0
    2.0481    2.0625    0.0000 N   0  3  0  0  0  0  0  0  0  0  0  0
    1.3337    2.4750    0.0000 O   0  0  0  0  0  0  0  0  0  0  0  0
    2.7626    2.4750    0.0000 O   0  5  0  0  0  0  0  0  0  0  0  0
    1.3337    0.8250    0.0000 C   0  0  0  0  0  0  0  0  0  0  0  0
    0.6192    1.2375    0.0000 C   0  0  0  0  0  0  0  0  0  0  0  0
   -0.0953    0.8250    0.0000 O   0  0  0  0  0  0  0  0  0  0  0  0
    0.6192    2.0625    0.0000 O   0  0  0  0  0  0  0  0  0  0  0  0
   -0.0953    0.0000    0.0000 O   0  0  0  0  0  0  0  0  0  0  0  0
  1  2  2  0  0  0  0
  2  3  1  0  0  0  0
  4  3  1  0  0  0  0
  5  4  2  0  0  0  0
  6  5  1  0  0  0  0
  7  6  2  0  0  0  0
  7  8  1  0  0  0  0
  8  9  2  0  0  0  0
  8 10  1  0  0  0  0
 11  7  1  0  0  0  0
  3 11  2  0  0  0  0
 11 12  1  0  0  0  0
 12 13  1  0  0  0  0
 12 14  2  0  0  0  0
  2 15  1  0  0  0  0
M  CHG  2   8   1  10  -1
M  END
> <ChemID>
100855

> <CAS>
603-11-2

> <Original_SMILES>
[O-][N+](=O)c1cccc(c1C(O)=O)C(O)=O

> <preferred_name>
3-Nitrophthalic acid

> <dsstox_substance_id>
DTXSID9060528

> <dsstox_compound_id>
DTXCID1042786

> <qc_level>
Public_High

> <Canonical_QSARr>
[O-][N+](=O)C1=CC=CC(=C1C(O)=O)C(O)=O

> <InChI_Code_QSARr>
InChI=1S/C8H5NO6/c10-7(11)4-2-1-3-5(9(14)15)6(4)8(12)13/h1-3H,(H,10,11)(H,12,13)

> <InChI Key_QSARr>
KFIRODWJCYBBHY-UHFFFAOYSA-N

> <Salt_Solvent>


> <Salt_Solvent_ID>
0

> <MPID>
100857

> <Tr_1_Tst_0>
1

> <Ready_Biodeg>
0.0

$$$$
Row832
  Mrv171c012251911052D          

 18 19  0  0  0  0            999 V2000
    2.5403   -0.5500    0.0000 C   0  0  0  0  0  0  0  0  0  0  0  0
    1.8259   -0.9625    0.0000 C   0  0  0  0  0  0  0  0  0  0  0  0
    1.1114   -0.5500    0.0000 O   0  0  0  0  0  0  0  0  0  0  0  0
    1.8259   -1.7875    0.0000 C   0  0  0  0  0  0  0  0  0  0  0  0
    1.1114   -2.2000    0.0000 C   0  0  0  0  0  0  0  0  0  0  0  0
    1.1114   -3.0250    0.0000 C   0  0  0  0  0  0  0  0  0  0  0  0
    1.8259   -3.4375    0.0000 C   0  0  0  0  0  0  0  0  0  0  0  0
    2.5403   -3.0250    0.0000 C   0  0  0  0  0  0  0  0  0  0  0  0
    2.5403   -2.2000    0.0000 C   0  0  0  0  0  0  0  0  0  0  0  0
    3.2548   -0.9625    0.0000 C   0  0  0  0  0  0  0  0  0  0  0  0
    3.9693   -0.5500    0.0000 C   0  0  0  0  0  0  0  0  0  0  0  0
    3.9693    0.2750    0.0000 C   0  0  0  0  0  0  0  0  0  0  0  0
    3.2548    0.6875    0.0000 C   0  0  0  0  0  0  0  0  0  0  0  0
    2.5403    0.2750    0.0000 C   0  0  0  0  0  0  0  0  0  0  0  0
    1.8259    0.6875    0.0000 C   0  0  0  0  0  0  0  0  0  0  0  0
    1.1114    0.2750    0.0000 O   0  0  0  0  0  0  0  0  0  0  0  0
    1.8259    1.5125    0.0000 O   0  0  0  0  0  0  0  0  0  0  0  0
    1.1114    1.9250    0.0000 C   0  0  0  0  0  0  0  0  0  0  0  0
  1  2  1  0  0  0  0
  2  3  2  0  0  0  0
  2  4  1  0  0  0  0
  5  4  1  0  0  0  0
  6  5  2  0  0  0  0
  7  6  1  0  0  0  0
  8  7  2  0  0  0  0
  9  8  1  0  0  0  0
  4  9  2  0  0  0  0
 10  1  1  0  0  0  0
 11 10  2  0  0  0  0
 12 11  1  0  0  0  0
 13 12  2  0  0  0  0
 14 13  1  0  0  0  0
  1 14  2  0  0  0  0
 14 15  1  0  0  0  0
 15 16  2  0  0  0  0
 15 17  1  0  0  0  0
 17 18  1  0  0  0  0
M  END
> <ChemID>
100856

> <CAS>
606-28-0

> <Original_SMILES>
COC(=O)c1ccccc1C(=O)c1ccccc1

> <preferred_name>
Methyl o-benzoylbenzoate

> <dsstox_substance_id>
DTXSID2060549

> <dsstox_compound_id>
DTXCID8042840

> <qc_level>
Public_High

> <Canonical_QSARr>
COC(=O)C1C=CC=CC=1C(=O)C1C=CC=CC=1

> <InChI_Code_QSARr>
InChI=1S/C15H12O3/c1-18-15(17)13-10-6-5-9-12(13)14(16)11-7-3-2-4-8-11/h2-10H,1H3

> <InChI Key_QSARr>
NQSMEZJWJJVYOI-UHFFFAOYSA-N

> <Salt_Solvent>


> <Salt_Solvent_ID>
0

> <MPID>
100858

> <Tr_1_Tst_0>
0

> <Ready_Biodeg>
0.0

$$$$
Row833
  Mrv171c012251911052D          

  9  9  0  0  0  0            999 V2000
    2.3958   -0.7880    0.0000 C   0  0  0  0  0  0  0  0  0  0  0  0
    1.6814   -1.2005    0.0000 C   0  0  0  0  0  0  0  0  0  0  0  0
    0.9669   -0.7880    0.0000 C   0  0  0  0  0  0  0  0  0  0  0  0
    0.9669    0.0370    0.0000 O   0  0  0  0  0  0  0  0  0  0  0  0
    0.2524   -1.2005    0.0000 C   0  0  0  0  0  0  0  0  0  0  0  0
    0.2524   -2.0255    0.0000 C   0  0  0  0  0  0  0  0  0  0  0  0
    0.9669   -2.4380    0.0000 C   0  0  0  0  0  0  0  0  0  0  0  0
    1.6814   -2.0255    0.0000 C   0  0  0  0  0  0  0  0  0  0  0  0
    2.3958   -2.4380    0.0000 O   0  0  0  0  0  0  0  0  0  0  0  0
  1  2  1  0  0  0  0
  3  2  1  0  0  0  0
  3  4  1  0  0  0  0
  5  3  2  0  0  0  0
  6  5  1  0  0  0  0
  7  6  2  0  0  0  0
  8  7  1  0  0  0  0
  2  8  2  0  0  0  0
  8  9  1  0  0  0  0
M  END
> <ChemID>
100857

> <CAS>
608-25-3

> <Original_SMILES>
Cc1c(O)cccc1O

> <preferred_name>
2-Methyl-1,3-benzenediol

> <dsstox_substance_id>
DTXSID0025571

> <dsstox_compound_id>
DTXCID005571

> <qc_level>
DSSTox_Low

> <Canonical_QSARr>
CC1C(O)=CC=CC=1O

> <InChI_Code_QSARr>
InChI=1S/C7H8O2/c1-5-6(8)3-2-4-7(5)9/h2-4,8-9H,1H3

> <InChI Key_QSARr>
ZTMADXFOCUXMJE-UHFFFAOYSA-N

> <Salt_Solvent>


> <Salt_Solvent_ID>
0

> <MPID>
100859

> <Tr_1_Tst_0>
1

> <Ready_Biodeg>
0.0

$$$$
Row834
  Mrv171c012251911052D          

 11 11  0  0  0  0            999 V2000
    2.2661   -1.3099    0.0000 C   0  0  0  0  0  0  0  0  0  0  0  0
    2.9805   -1.7224    0.0000 Cl  0  0  0  0  0  0  0  0  0  0  0  0
    2.2661   -0.4849    0.0000 C   0  0  0  0  0  0  0  0  0  0  0  0
    1.5516   -0.0724    0.0000 C   0  0  0  0  0  0  0  0  0  0  0  0
    1.5516    0.7526    0.0000 Cl  0  0  0  0  0  0  0  0  0  0  0  0
    0.8371   -0.4849    0.0000 C   0  0  0  0  0  0  0  0  0  0  0  0
    0.1226   -0.0724    0.0000 Cl  0  0  0  0  0  0  0  0  0  0  0  0
    0.8371   -1.3099    0.0000 C   0  0  0  0  0  0  0  0  0  0  0  0
    0.1226   -1.7224    0.0000 Cl  0  0  0  0  0  0  0  0  0  0  0  0
    1.5516   -1.7224    0.0000 C   0  0  0  0  0  0  0  0  0  0  0  0
    1.5516   -2.5474    0.0000 Cl  0  0  0  0  0  0  0  0  0  0  0  0
  1  2  1  0  0  0  0
  3  1  2  0  0  0  0
  4  3  1  0  0  0  0
  4  5  1  0  0  0  0
  6  4  2  0  0  0  0
  6  7  1  0  0  0  0
  8  6  1  0  0  0  0
  8  9  1  0  0  0  0
 10  8  2  0  0  0  0
  1 10  1  0  0  0  0
 10 11  1  0  0  0  0
M  END
> <ChemID>
100858

> <CAS>
608-93-5

> <Original_SMILES>
Clc1c(Cl)c(Cl)cc(Cl)c1Cl

> <preferred_name>
Pentachlorobenzene

> <dsstox_substance_id>
DTXSID7024247

> <dsstox_compound_id>
DTXCID804247

> <qc_level>
DSSTox_Low

> <Canonical_QSARr>
ClC1=CC(Cl)=C(Cl)C(Cl)=C1Cl

> <InChI_Code_QSARr>
InChI=1S/C6HCl5/c7-2-1-3(8)5(10)6(11)4(2)9/h1H

> <InChI Key_QSARr>
CEOCDNVZRAIOQZ-UHFFFAOYSA-N

> <Salt_Solvent>


> <Salt_Solvent_ID>
0

> <MPID>
100860

> <Tr_1_Tst_0>
1

> <Ready_Biodeg>
0.0

$$$$
Row835
  Mrv171c012251911052D          

 12 12  0  0  0  0            999 V2000
    5.1295   -0.7219    0.0000 Cl  0  0  0  0  0  0  0  0  0  0  0  0
    4.4150   -0.3094    0.0000 C   0  0  0  0  0  0  0  0  0  0  0  0
    4.4150    0.5156    0.0000 C   0  0  0  0  0  0  0  0  0  0  0  0
    3.7006    0.9281    0.0000 C   0  0  0  0  0  0  0  0  0  0  0  0
    3.7006    1.7531    0.0000 Cl  0  0  0  0  0  0  0  0  0  0  0  0
    2.9861    0.5156    0.0000 C   0  0  0  0  0  0  0  0  0  0  0  0
    2.9861   -0.3094    0.0000 C   0  0  0  0  0  0  0  0  0  0  0  0
    2.2716   -0.7219    0.0000 N   0  3  0  0  0  0  0  0  0  0  0  0
    2.2716   -1.5469    0.0000 O   0  0  0  0  0  0  0  0  0  0  0  0
    1.5571   -0.3094    0.0000 O   0  5  0  0  0  0  0  0  0  0  0  0
    3.7006   -0.7219    0.0000 C   0  0  0  0  0  0  0  0  0  0  0  0
    3.7006   -1.5469    0.0000 O   0  0  0  0  0  0  0  0  0  0  0  0
  1  2  1  0  0  0  0
  3  2  1  0  0  0  0
  4  3  2  0  0  0  0
  4  5  1  0  0  0  0
  6  4  1  0  0  0  0
  7  6  2  0  0  0  0
  7  8  1  0  0  0  0
  8  9  2  0  0  0  0
  8 10  1  0  0  0  0
 11  7  1  0  0  0  0
  2 11  2  0  0  0  0
 11 12  1  0  0  0  0
M  CHG  2   8   1  10  -1
M  END
> <ChemID>
100859

> <CAS>
609-89-2

> <Original_SMILES>
[O-][N+](=O)c1cc(Cl)cc(Cl)c1O

> <preferred_name>
Phenol, 2,4-dichloro-6-nitro-

> <dsstox_substance_id>
DTXSID00209738

> <dsstox_compound_id>
DTXCID50132229

> <qc_level>
Public_Medium

> <Canonical_QSARr>
[O-][N+](=O)C1=CC(Cl)=CC(Cl)=C1O

> <InChI_Code_QSARr>
InChI=1S/C6H3Cl2NO3/c7-3-1-4(8)6(10)5(2-3)9(11)12/h1-2,10H

> <InChI Key_QSARr>
LYPMXMBQPXPNIQ-UHFFFAOYSA-N

> <Salt_Solvent>


> <Salt_Solvent_ID>
0

> <MPID>
100861

> <Tr_1_Tst_0>
1

> <Ready_Biodeg>
0.0

$$$$
Row836
  Mrv171c012251911052D          

 13 13  0  0  0  0            999 V2000
    2.1927   -1.7150    0.0000 C   0  0  0  0  0  0  0  0  0  0  0  0
    2.9071   -1.3025    0.0000 N   0  3  0  0  0  0  0  0  0  0  0  0
    3.6216   -1.7150    0.0000 O   0  0  0  0  0  0  0  0  0  0  0  0
    2.9071   -0.4775    0.0000 O   0  5  0  0  0  0  0  0  0  0  0  0
    1.4782   -1.3025    0.0000 C   0  0  0  0  0  0  0  0  0  0  0  0
    1.4782   -0.4775    0.0000 N   0  3  0  0  0  0  0  0  0  0  0  0
    0.7637   -0.0650    0.0000 O   0  0  0  0  0  0  0  0  0  0  0  0
    2.1927   -0.0650    0.0000 O   0  5  0  0  0  0  0  0  0  0  0  0
    0.7637   -1.7150    0.0000 C   0  0  0  0  0  0  0  0  0  0  0  0
    0.7637   -2.5400    0.0000 C   0  0  0  0  0  0  0  0  0  0  0  0
    0.0492   -2.9525    0.0000 C   0  0  0  0  0  0  0  0  0  0  0  0
    1.4782   -2.9525    0.0000 C   0  0  0  0  0  0  0  0  0  0  0  0
    2.1927   -2.5400    0.0000 C   0  0  0  0  0  0  0  0  0  0  0  0
  1  2  1  0  0  0  0
  2  3  2  0  0  0  0
  2  4  1  0  0  0  0
  5  1  1  0  0  0  0
  5  6  1  0  0  0  0
  6  7  2  0  0  0  0
  6  8  1  0  0  0  0
  9  5  2  0  0  0  0
 10  9  1  0  0  0  0
 10 11  1  0  0  0  0
 12 10  2  0  0  0  0
 13 12  1  0  0  0  0
  1 13  2  0  0  0  0
M  CHG  4   2   1   4  -1   6   1   8  -1
M  END
> <ChemID>
100860

> <CAS>
610-39-9

> <Original_SMILES>
Cc1cc(c(cc1)[N+]([O-])=O)[N+]([O-])=O

> <preferred_name>
3,4-Dinitrotoluene

> <dsstox_substance_id>
DTXSID8027240

> <dsstox_compound_id>
DTXCID307240

> <qc_level>
DSSTox_Low

> <Canonical_QSARr>
CC1C=C(C(=CC=1)[N+]([O-])=O)[N+]([O-])=O

> <InChI_Code_QSARr>
InChI=1S/C7H6N2O4/c1-5-2-3-6(8(10)11)7(4-5)9(12)13/h2-4H,1H3

> <InChI Key_QSARr>
INYDMNPNDHRJQJ-UHFFFAOYSA-N

> <Salt_Solvent>


> <Salt_Solvent_ID>
0

> <MPID>
100862

> <Tr_1_Tst_0>
0

> <Ready_Biodeg>
0.0

$$$$
Row837
  Mrv171c012251911052D          

  9  9  0  0  0  0            999 V2000
   -0.3175    1.2833    0.0000 N   0  0  0  0  0  0  0  0  0  0  0  0
   -0.3175    2.1083    0.0000 C   0  0  0  0  0  0  0  0  0  0  0  0
    0.3969    0.8708    0.0000 C   0  0  0  0  0  0  0  0  0  0  0  0
    0.3969    0.0458    0.0000 C   0  0  0  0  0  0  0  0  0  0  0  0
    1.1114   -0.3667    0.0000 C   0  0  0  0  0  0  0  0  0  0  0  0
    1.8259    0.0458    0.0000 C   0  0  0  0  0  0  0  0  0  0  0  0
    1.8259    0.8708    0.0000 C   0  0  0  0  0  0  0  0  0  0  0  0
    1.1114    1.2833    0.0000 C   0  0  0  0  0  0  0  0  0  0  0  0
    1.1114    2.1083    0.0000 C   0  0  0  0  0  0  0  0  0  0  0  0
  1  2  1  0  0  0  0
  1  3  1  0  0  0  0
  4  3  1  0  0  0  0
  5  4  2  0  0  0  0
  6  5  1  0  0  0  0
  7  6  2  0  0  0  0
  8  7  1  0  0  0  0
  3  8  2  0  0  0  0
  8  9  1  0  0  0  0
M  END
> <ChemID>
100861

> <CAS>
611-21-2

> <Original_SMILES>
Cc1ccccc1NC

> <preferred_name>
Benzenamine, N,2-dimethyl-

> <dsstox_substance_id>
DTXSID4060600

> <dsstox_compound_id>
DTXCID9042964

> <qc_level>
Public_High

> <Canonical_QSARr>
CC1C=CC=CC=1NC

> <InChI_Code_QSARr>
InChI=1S/C8H11N/c1-7-5-3-4-6-8(7)9-2/h3-6,9H,1-2H3

> <InChI Key_QSARr>
GUAWMXYQZKVRCW-UHFFFAOYSA-N

> <Salt_Solvent>


> <Salt_Solvent_ID>
0

> <MPID>
100863

> <Tr_1_Tst_0>
1

> <Ready_Biodeg>
0.0

$$$$
Row838
  Mrv171c012251911052D          

 11 11  0  0  0  0            999 V2000
    0.0925   -1.5619    0.0000 O   0  0  0  0  0  0  0  0  0  0  0  0
    0.8070   -1.9744    0.0000 C   0  0  0  0  0  0  0  0  0  0  0  0
    0.8070   -2.7994    0.0000 C   0  0  0  0  0  0  0  0  0  0  0  0
    1.5215   -3.2119    0.0000 C   0  0  0  0  0  0  0  0  0  0  0  0
    2.2359   -2.7994    0.0000 C   0  0  0  0  0  0  0  0  0  0  0  0
    2.2359   -1.9744    0.0000 C   0  0  0  0  0  0  0  0  0  0  0  0
    1.5215   -1.5619    0.0000 C   0  0  0  0  0  0  0  0  0  0  0  0
    1.5215   -0.7369    0.0000 N   0  0  0  0  0  0  0  0  0  0  0  0
    2.2359   -0.3244    0.0000 C   0  0  0  0  0  0  0  0  0  0  0  0
    2.2359    0.5006    0.0000 C   0  0  0  0  0  0  0  0  0  0  0  0
    2.9504   -0.7369    0.0000 O   0  0  0  0  0  0  0  0  0  0  0  0
  1  2  1  0  0  0  0
  3  2  1  0  0  0  0
  4  3  2  0  0  0  0
  5  4  1  0  0  0  0
  6  5  2  0  0  0  0
  7  6  1  0  0  0  0
  2  7  2  0  0  0  0
  7  8  1  0  0  0  0
  8  9  1  0  0  0  0
  9 10  1  0  0  0  0
  9 11  2  0  0  0  0
M  END
> <ChemID>
100862

> <CAS>
614-80-2

> <Original_SMILES>
CC(=O)Nc1ccccc1O

> <preferred_name>
2-Acetamidophenol

> <dsstox_substance_id>
DTXSID8022082

> <dsstox_compound_id>
DTXCID402082

> <qc_level>
DSSTox_Low

> <Canonical_QSARr>
CC(=O)NC1C=CC=CC=1O

> <InChI_Code_QSARr>
InChI=1S/C8H9NO2/c1-6(10)9-7-4-2-3-5-8(7)11/h2-5,11H,1H3,(H,9,10)

> <InChI Key_QSARr>
ADVGKWPZRIDURE-UHFFFAOYSA-N

> <Salt_Solvent>


> <Salt_Solvent_ID>
0

> <MPID>
100864

> <Tr_1_Tst_0>
1

> <Ready_Biodeg>
1.0

$$$$
Row839
  Mrv171c012251911052D          

  9  9  0  0  0  0            999 V2000
    1.4277   -1.2339    0.0000 C   0  0  0  0  0  0  0  0  0  0  0  0
    2.1421   -0.8214    0.0000 Br  0  0  0  0  0  0  0  0  0  0  0  0
    0.7132   -0.8214    0.0000 C   0  0  0  0  0  0  0  0  0  0  0  0
    0.7132    0.0036    0.0000 O   0  0  0  0  0  0  0  0  0  0  0  0
   -0.0013   -1.2339    0.0000 C   0  0  0  0  0  0  0  0  0  0  0  0
   -0.0013   -2.0589    0.0000 C   0  0  0  0  0  0  0  0  0  0  0  0
    0.7132   -2.4714    0.0000 C   0  0  0  0  0  0  0  0  0  0  0  0
    0.7132   -3.2964    0.0000 Br  0  0  0  0  0  0  0  0  0  0  0  0
    1.4277   -2.0589    0.0000 C   0  0  0  0  0  0  0  0  0  0  0  0
  1  2  1  0  0  0  0
  3  1  2  0  0  0  0
  3  4  1  0  0  0  0
  5  3  1  0  0  0  0
  6  5  2  0  0  0  0
  7  6  1  0  0  0  0
  7  8  1  0  0  0  0
  9  7  2  0  0  0  0
  1  9  1  0  0  0  0
M  END
> <ChemID>
100863

> <CAS>
615-58-7

> <Original_SMILES>
Oc1ccc(Br)cc1Br

> <preferred_name>
2,4-Dibromophenol

> <dsstox_substance_id>
DTXSID1052290

> <dsstox_compound_id>
DTXCID1030862

> <qc_level>
DSSTox_Low

> <Canonical_QSARr>
OC1C=CC(Br)=CC=1Br

> <InChI_Code_QSARr>
InChI=1S/C6H4Br2O/c7-4-1-2-6(9)5(8)3-4/h1-3,9H

> <InChI Key_QSARr>
FAXWFCTVSHEODL-UHFFFAOYSA-N

> <Salt_Solvent>


> <Salt_Solvent_ID>
0

> <MPID>
100865

> <Tr_1_Tst_0>
1

> <Ready_Biodeg>
0.0

$$$$
Row840
  Mrv171c012251911052D          

  9  9  0  0  0  0            999 V2000
    1.9846   -0.6875    0.0000 O   0  0  0  0  0  0  0  0  0  0  0  0
    1.2702   -0.2750    0.0000 C   0  0  0  0  0  0  0  0  0  0  0  0
    1.2702    0.5500    0.0000 C   0  0  0  0  0  0  0  0  0  0  0  0
    0.5557    0.9625    0.0000 C   0  0  0  0  0  0  0  0  0  0  0  0
    0.5557    1.7875    0.0000 Cl  0  0  0  0  0  0  0  0  0  0  0  0
   -0.1588    0.5500    0.0000 C   0  0  0  0  0  0  0  0  0  0  0  0
   -0.8732    0.9625    0.0000 C   0  0  0  0  0  0  0  0  0  0  0  0
   -0.1588   -0.2750    0.0000 C   0  0  0  0  0  0  0  0  0  0  0  0
    0.5557   -0.6875    0.0000 C   0  0  0  0  0  0  0  0  0  0  0  0
  1  2  1  0  0  0  0
  3  2  1  0  0  0  0
  4  3  2  0  0  0  0
  4  5  1  0  0  0  0
  6  4  1  0  0  0  0
  6  7  1  0  0  0  0
  8  6  2  0  0  0  0
  9  8  1  0  0  0  0
  2  9  2  0  0  0  0
M  END
> <ChemID>
100864

> <CAS>
615-62-3

> <Original_SMILES>
Cc1ccc(O)cc1Cl

> <preferred_name>
Phenol, 3-chloro-4-methyl-

> <dsstox_substance_id>
DTXSID9060655

> <dsstox_compound_id>
DTXCID4043064

> <qc_level>
Public_High

> <Canonical_QSARr>
CC1=CC=C(O)C=C1Cl

> <InChI_Code_QSARr>
InChI=1S/C7H7ClO/c1-5-2-3-6(9)4-7(5)8/h2-4,9H,1H3

> <InChI Key_QSARr>
VQZRLBWPEHFGCD-UHFFFAOYSA-N

> <Salt_Solvent>


> <Salt_Solvent_ID>
0

> <MPID>
100866

> <Tr_1_Tst_0>
0

> <Ready_Biodeg>
0.0

$$$$
Row841
  Mrv171c012251911052D          

  9  9  0  0  0  0            999 V2000
    3.0175   -1.9249    0.0000 C   0  0  0  0  0  0  0  0  0  0  0  0
    2.3030   -1.5124    0.0000 C   0  0  0  0  0  0  0  0  0  0  0  0
    2.3030   -0.6874    0.0000 C   0  0  0  0  0  0  0  0  0  0  0  0
    1.5885   -0.2749    0.0000 C   0  0  0  0  0  0  0  0  0  0  0  0
    1.5885    0.5501    0.0000 O   0  0  0  0  0  0  0  0  0  0  0  0
    0.8741   -0.6874    0.0000 C   0  0  0  0  0  0  0  0  0  0  0  0
    0.1596   -0.2749    0.0000 Cl  0  0  0  0  0  0  0  0  0  0  0  0
    0.8741   -1.5124    0.0000 C   0  0  0  0  0  0  0  0  0  0  0  0
    1.5885   -1.9249    0.0000 C   0  0  0  0  0  0  0  0  0  0  0  0
  1  2  1  0  0  0  0
  3  2  1  0  0  0  0
  4  3  2  0  0  0  0
  4  5  1  0  0  0  0
  6  4  1  0  0  0  0
  6  7  1  0  0  0  0
  8  6  2  0  0  0  0
  9  8  1  0  0  0  0
  2  9  2  0  0  0  0
M  END
> <ChemID>
100865

> <CAS>
615-74-7

> <Original_SMILES>
Cc1ccc(Cl)c(O)c1

> <preferred_name>
2-Chloro-5-methylphenol

> <dsstox_substance_id>
DTXSID1046558

> <dsstox_compound_id>
DTXCID9026558

> <qc_level>
DSSTox_Low

> <Canonical_QSARr>
CC1=CC=C(Cl)C(O)=C1

> <InChI_Code_QSARr>
InChI=1S/C7H7ClO/c1-5-2-3-6(8)7(9)4-5/h2-4,9H,1H3

> <InChI Key_QSARr>
SMFHPCZZAAMJJO-UHFFFAOYSA-N

> <Salt_Solvent>


> <Salt_Solvent_ID>
0

> <MPID>
100867

> <Tr_1_Tst_0>
1

> <Ready_Biodeg>
0.0

$$$$
Row842
  Mrv171c012251911052D          

  9  9  0  0  0  0            999 V2000
    2.3645    0.7755    0.0000 S   0  0  0  0  0  0  0  0  0  0  0  0
    2.3645   -0.0495    0.0000 C   0  0  0  0  0  0  0  0  0  0  0  0
    1.6500   -0.4620    0.0000 C   0  0  0  0  0  0  0  0  0  0  0  0
    1.6500   -1.2870    0.0000 C   0  0  0  0  0  0  0  0  0  0  0  0
    2.3645   -1.6995    0.0000 C   0  0  0  0  0  0  0  0  0  0  0  0
    3.0789   -1.2870    0.0000 C   0  0  0  0  0  0  0  0  0  0  0  0
    3.0789   -0.4620    0.0000 C   0  0  0  0  0  0  0  0  0  0  0  0
    1.6500    1.1880    0.0000 O   0  0  0  0  0  0  0  0  0  0  0  0
    3.0789    1.1880    0.0000 O   0  0  0  0  0  0  0  0  0  0  0  0
  1  2  1  0  0  0  0
  3  2  1  0  0  0  0
  4  3  2  0  0  0  0
  5  4  1  0  0  0  0
  6  5  2  0  0  0  0
  7  6  1  0  0  0  0
  2  7  2  0  0  0  0
  1  8  2  0  0  0  0
  1  9  1  0  0  0  0
M  END
> <ChemID>
100867

> <CAS>
NOCAS_862453

> <Original_SMILES>
OS(=O)c1ccccc1

> <preferred_name>
Benzenesulfinic acid

> <dsstox_substance_id>
DTXSID50862453

> <dsstox_compound_id>
DTXCID80197508

> <qc_level>
Public_Medium

> <Canonical_QSARr>
OS(=O)C1C=CC=CC=1

> <InChI_Code_QSARr>
InChI=1S/C6H6O2S/c7-9(8)6-4-2-1-3-5-6/h1-5H,(H,7,8)

> <InChI Key_QSARr>
JEHKKBHWRAXMCH-UHFFFAOYSA-N

> <Salt_Solvent>


> <Salt_Solvent_ID>
0

> <MPID>
100868

> <Tr_1_Tst_0>
1

> <Ready_Biodeg>
0.0

$$$$
Row843
  Mrv171c012251911052D          

 11 11  0  0  0  0            999 V2000
    0.7145    1.2375    0.0000 C   0  0  0  0  0  0  0  0  0  0  0  0
   -0.0000    0.8250    0.0000 C   0  0  0  0  0  0  0  0  0  0  0  0
   -0.0000    0.0000    0.0000 C   0  0  0  0  0  0  0  0  0  0  0  0
    0.7145   -0.4125    0.0000 C   0  0  0  0  0  0  0  0  0  0  0  0
    1.4289    0.0000    0.0000 C   0  0  0  0  0  0  0  0  0  0  0  0
    1.4289    0.8250    0.0000 C   0  0  0  0  0  0  0  0  0  0  0  0
    0.7145    2.0625    0.0000 N   0  0  0  0  0  0  0  0  0  0  0  0
   -0.0000    2.4750    0.0000 C   0  0  0  0  0  0  0  0  0  0  0  0
   -0.7145    2.0625    0.0000 O   0  0  0  0  0  0  0  0  0  0  0  0
   -0.0000    3.3000    0.0000 C   0  0  0  0  0  0  0  0  0  0  0  0
   -0.7145    3.7125    0.0000 C   0  0  0  0  0  0  0  0  0  0  0  0
  2  1  1  0  0  0  0
  3  2  2  0  0  0  0
  4  3  1  0  0  0  0
  5  4  2  0  0  0  0
  6  5  1  0  0  0  0
  1  6  2  0  0  0  0
  1  7  1  0  0  0  0
  7  8  1  0  0  0  0
  8  9  2  0  0  0  0
  8 10  1  0  0  0  0
 10 11  1  0  0  0  0
M  END
> <ChemID>
100868

> <CAS>
620-71-3

> <Original_SMILES>
CCC(=O)Nc1ccccc1

> <preferred_name>
N-Phenylpropanamide

> <dsstox_substance_id>
DTXSID0060721

> <dsstox_compound_id>
DTXCID1043207

> <qc_level>
Public_High

> <Canonical_QSARr>
CCC(=O)NC1C=CC=CC=1

> <InChI_Code_QSARr>
InChI=1S/C9H11NO/c1-2-9(11)10-8-6-4-3-5-7-8/h3-7H,2H2,1H3,(H,10,11)

> <InChI Key_QSARr>
ZTHRQJQJODGZHV-UHFFFAOYSA-N

> <Salt_Solvent>


> <Salt_Solvent_ID>
0

> <MPID>
100869

> <Tr_1_Tst_0>
1

> <Ready_Biodeg>
0.0

$$$$
Row844
  Mrv171c012251911052D          

  9  8  0  0  0  0            999 V2000
    2.5412   -2.2425    0.0000 O   0  0  0  0  0  0  0  0  0  0  0  0
    1.8267   -1.8300    0.0000 N   0  0  0  0  0  0  0  0  0  0  0  0
    1.8267   -1.0050    0.0000 N   0  0  0  0  0  0  0  0  0  0  0  0
    1.1123   -0.5925    0.0000 C   0  0  0  0  0  0  0  0  0  0  0  0
    0.3978   -1.0050    0.0000 C   0  0  0  0  0  0  0  0  0  0  0  0
   -0.3167   -0.5925    0.0000 C   0  0  0  0  0  0  0  0  0  0  0  0
    2.5412   -0.5925    0.0000 C   0  0  0  0  0  0  0  0  0  0  0  0
    3.2557   -1.0050    0.0000 C   0  0  0  0  0  0  0  0  0  0  0  0
    3.9702   -0.5925    0.0000 C   0  0  0  0  0  0  0  0  0  0  0  0
  1  2  2  0  0  0  0
  2  3  1  0  0  0  0
  3  4  1  0  0  0  0
  4  5  1  0  0  0  0
  5  6  1  0  0  0  0
  3  7  1  0  0  0  0
  7  8  1  0  0  0  0
  8  9  1  0  0  0  0
M  END
> <ChemID>
100869

> <CAS>
621-64-7

> <Original_SMILES>
CCCN(CCC)N=O

> <preferred_name>
N-Nitrosodipropylamine

> <dsstox_substance_id>
DTXSID6021032

> <dsstox_compound_id>
DTXCID801032

> <qc_level>
DSSTox_Low

> <Canonical_QSARr>
CCCN(CCC)N=O

> <InChI_Code_QSARr>
InChI=1S/C6H14N2O/c1-3-5-8(7-9)6-4-2/h3-6H2,1-2H3

> <InChI Key_QSARr>
YLKFDHTUAUWZPQ-UHFFFAOYSA-N

> <Salt_Solvent>


> <Salt_Solvent_ID>
0

> <MPID>
100870

> <Tr_1_Tst_0>
0

> <Ready_Biodeg>
0.0

$$$$
Row845
  Mrv171c012251911052D          

 11 11  0  0  0  0            999 V2000
   -0.7145    3.7125    0.0000 O   0  0  0  0  0  0  0  0  0  0  0  0
    0.0000    3.3000    0.0000 C   0  0  0  0  0  0  0  0  0  0  0  0
    0.7145    3.7125    0.0000 O   0  0  0  0  0  0  0  0  0  0  0  0
    0.0000    2.4750    0.0000 C   0  0  0  0  0  0  0  0  0  0  0  0
    0.7145    2.0625    0.0000 C   0  0  0  0  0  0  0  0  0  0  0  0
    0.7145    1.2375    0.0000 C   0  0  0  0  0  0  0  0  0  0  0  0
    1.4289    0.8250    0.0000 C   0  0  0  0  0  0  0  0  0  0  0  0
    1.4289   -0.0000    0.0000 C   0  0  0  0  0  0  0  0  0  0  0  0
    0.7145   -0.4125    0.0000 C   0  0  0  0  0  0  0  0  0  0  0  0
    0.0000    0.0000    0.0000 C   0  0  0  0  0  0  0  0  0  0  0  0
    0.0000    0.8250    0.0000 C   0  0  0  0  0  0  0  0  0  0  0  0
  1  2  1  0  0  0  0
  2  3  2  0  0  0  0
  4  2  1  4  0  0  0
  4  5  2  0  0  0  0
  5  6  1  0  0  0  0
  6  7  1  0  0  0  0
  7  8  2  0  0  0  0
  8  9  1  0  0  0  0
  9 10  2  0  0  0  0
 10 11  1  0  0  0  0
  6 11  2  0  0  0  0
M  END
> <ChemID>
100870

> <CAS>
621-82-9

> <Original_SMILES>
OC(=O)C=Cc1ccccc1

> <preferred_name>
Cinnamic acid

> <dsstox_substance_id>
DTXSID40110056

> <dsstox_compound_id>
DTXCID9065316

> <qc_level>
DSSTox_High

> <Canonical_QSARr>
OC(=O)C=CC1C=CC=CC=1

> <InChI_Code_QSARr>
InChI=1S/C9H8O2/c10-9(11)7-6-8-4-2-1-3-5-8/h1-7H,(H,10,11)

> <InChI Key_QSARr>
WBYWAXJHAXSJNI-UHFFFAOYSA-N

> <Salt_Solvent>


> <Salt_Solvent_ID>
0

> <MPID>
100871

> <Tr_1_Tst_0>
1

> <Ready_Biodeg>
1.0

$$$$
Row846
  Mrv171c012251911052D          

  9  9  0  0  0  0            999 V2000
    2.7123    1.5972    0.0000 O   0  0  0  0  0  0  0  0  0  0  0  0
    2.7123    0.7722    0.0000 C   0  0  0  0  0  0  0  0  0  0  0  0
    1.9978    0.3597    0.0000 C   0  0  0  0  0  0  0  0  0  0  0  0
    1.9978   -0.4653    0.0000 N   0  0  0  0  0  0  0  0  0  0  0  0
    1.2833   -0.8778    0.0000 C   0  0  0  0  0  0  0  0  0  0  0  0
    1.2833   -1.7028    0.0000 C   0  0  0  0  0  0  0  0  0  0  0  0
    1.9978   -2.1153    0.0000 O   0  0  0  0  0  0  0  0  0  0  0  0
    2.7123   -1.7028    0.0000 C   0  0  0  0  0  0  0  0  0  0  0  0
    2.7123   -0.8778    0.0000 C   0  0  0  0  0  0  0  0  0  0  0  0
  1  2  1  0  0  0  0
  2  3  1  0  0  0  0
  3  4  1  0  0  0  0
  5  4  1  0  0  0  0
  6  5  1  0  0  0  0
  7  6  1  0  0  0  0
  8  7  1  0  0  0  0
  9  8  1  0  0  0  0
  4  9  1  0  0  0  0
M  END
> <ChemID>
100871

> <CAS>
622-40-2

> <Original_SMILES>
OCCN1CCOCC1

> <preferred_name>
4-(2-Hydroxyethyl)morpholine

> <dsstox_substance_id>
DTXSID2022090

> <dsstox_compound_id>
DTXCID902090

> <qc_level>
DSSTox_Low

> <Canonical_QSARr>
OCCN1CCOCC1

> <InChI_Code_QSARr>
InChI=1S/C6H13NO2/c8-4-1-7-2-5-9-6-3-7/h8H,1-6H2

> <InChI Key_QSARr>
KKFDCBRMNNSAAW-UHFFFAOYSA-N

> <Salt_Solvent>


> <Salt_Solvent_ID>
0

> <MPID>
100872

> <Tr_1_Tst_0>
1

> <Ready_Biodeg>
1.0

$$$$
Row847
  Mrv171c012251911052D          

 10 10  0  0  0  0            999 V2000
    1.0003    0.5775    0.0000 C   0  0  0  0  0  0  0  0  0  0  0  0
    1.0003   -0.2475    0.0000 N   0  0  0  0  0  0  0  0  0  0  0  0
    0.2858   -0.6600    0.0000 C   0  0  0  0  0  0  0  0  0  0  0  0
    0.2858   -1.4850    0.0000 C   0  0  0  0  0  0  0  0  0  0  0  0
    1.7147    0.9900    0.0000 C   0  0  0  0  0  0  0  0  0  0  0  0
    1.7147    1.8150    0.0000 C   0  0  0  0  0  0  0  0  0  0  0  0
    1.0003    2.2275    0.0000 C   0  0  0  0  0  0  0  0  0  0  0  0
    1.0003    3.0525    0.0000 C   0  0  0  0  0  0  0  0  0  0  0  0
    0.2858    1.8150    0.0000 C   0  0  0  0  0  0  0  0  0  0  0  0
    0.2858    0.9900    0.0000 C   0  0  0  0  0  0  0  0  0  0  0  0
  1  2  1  0  0  0  0
  2  3  1  0  0  0  0
  3  4  1  0  0  0  0
  5  1  1  0  0  0  0
  6  5  2  0  0  0  0
  7  6  1  0  0  0  0
  7  8  1  0  0  0  0
  9  7  2  0  0  0  0
 10  9  1  0  0  0  0
  1 10  2  0  0  0  0
M  END
> <ChemID>
100872

> <CAS>
622-57-1

> <Original_SMILES>
Cc1ccc(cc1)NCC

> <preferred_name>
Benzenamine, N-ethyl-4-methyl-

> <dsstox_substance_id>
DTXSID7060754

> <dsstox_compound_id>
DTXCID5043269

> <qc_level>
Public_High

> <Canonical_QSARr>
CC1C=CC(=CC=1)NCC

> <InChI_Code_QSARr>
InChI=1S/C9H13N/c1-3-10-9-6-4-8(2)5-7-9/h4-7,10H,3H2,1-2H3

> <InChI Key_QSARr>
AASABFUMCBTXRL-UHFFFAOYSA-N

> <Salt_Solvent>


> <Salt_Solvent_ID>
0

> <MPID>
100873

> <Tr_1_Tst_0>
1

> <Ready_Biodeg>
0.0

$$$$
Row848
  Mrv171c012251911052D          

 10 10  0  0  0  0            999 V2000
    0.7145   -0.4125    0.0000 C   0  0  0  0  0  0  0  0  0  0  0  0
    0.7145   -1.2375    0.0000 C   0  0  0  0  0  0  0  0  0  0  0  0
    0.7145   -2.0625    0.0000 N   0  0  0  0  0  0  0  0  0  0  0  0
    1.4289    0.0000    0.0000 C   0  0  0  0  0  0  0  0  0  0  0  0
    1.4289    0.8250    0.0000 C   0  0  0  0  0  0  0  0  0  0  0  0
    0.7145    1.2375    0.0000 C   0  0  0  0  0  0  0  0  0  0  0  0
    0.7145    2.0625    0.0000 C   0  0  0  0  0  0  0  0  0  0  0  0
    0.7145    2.8875    0.0000 N   0  0  0  0  0  0  0  0  0  0  0  0
    0.0000    0.8250    0.0000 C   0  0  0  0  0  0  0  0  0  0  0  0
    0.0000    0.0000    0.0000 C   0  0  0  0  0  0  0  0  0  0  0  0
  1  2  1  0  0  0  0
  2  3  3  0  0  0  0
  4  1  1  0  0  0  0
  5  4  2  0  0  0  0
  6  5  1  0  0  0  0
  6  7  1  0  0  0  0
  7  8  3  0  0  0  0
  9  6  2  0  0  0  0
 10  9  1  0  0  0  0
  1 10  2  0  0  0  0
M  END
> <ChemID>
100873

> <CAS>
623-26-7

> <Original_SMILES>
N#Cc1ccc(cc1)C#N

> <preferred_name>
1,4-Benzenedicarbonitrile

> <dsstox_substance_id>
DTXSID1060768

> <dsstox_compound_id>
DTXCID7043299

> <qc_level>
Public_High

> <Canonical_QSARr>
N#CC1C=CC(=CC=1)C#N

> <InChI_Code_QSARr>
InChI=1S/C8H4N2/c9-5-7-1-2-8(6-10)4-3-7/h1-4H

> <InChI Key_QSARr>
BHXFKXOIODIUJO-UHFFFAOYSA-N

> <Salt_Solvent>


> <Salt_Solvent_ID>
0

> <MPID>
100874

> <Tr_1_Tst_0>
0

> <Ready_Biodeg>
0.0

$$$$
Row849
  Mrv171c012251911052D          

 10 10  0  0  0  0            999 V2000
    1.4289    0.8250    0.0000 C   0  0  0  0  0  0  0  0  0  0  0  0
    0.7145    1.2375    0.0000 C   0  0  0  0  0  0  0  0  0  0  0  0
    0.7145    2.0625    0.0000 C   0  0  0  0  0  0  0  0  0  0  0  0
   -0.0000    2.4750    0.0000 O   0  0  0  0  0  0  0  0  0  0  0  0
   -0.0000    0.8250    0.0000 C   0  0  0  0  0  0  0  0  0  0  0  0
   -0.0000    0.0000    0.0000 C   0  0  0  0  0  0  0  0  0  0  0  0
    0.7145   -0.4125    0.0000 C   0  0  0  0  0  0  0  0  0  0  0  0
    0.7145   -1.2375    0.0000 C   0  0  0  0  0  0  0  0  0  0  0  0
    1.4289   -1.6500    0.0000 O   0  0  0  0  0  0  0  0  0  0  0  0
    1.4289    0.0000    0.0000 C   0  0  0  0  0  0  0  0  0  0  0  0
  2  1  1  0  0  0  0
  2  3  1  0  0  0  0
  3  4  2  0  0  0  0
  5  2  2  0  0  0  0
  6  5  1  0  0  0  0
  7  6  2  0  0  0  0
  7  8  1  0  0  0  0
  8  9  2  0  0  0  0
 10  7  1  0  0  0  0
  1 10  2  0  0  0  0
M  END
> <ChemID>
100874

> <CAS>
623-27-8

> <Original_SMILES>
O=Cc1ccc(cc1)C=O

> <preferred_name>
1,4-Benzenedicarboxaldehyde

> <dsstox_substance_id>
DTXSID6060769

> <dsstox_compound_id>
DTXCID9043300

> <qc_level>
Public_High

> <Canonical_QSARr>
O=CC1C=CC(=CC=1)C=O

> <InChI_Code_QSARr>
InChI=1S/C8H6O2/c9-5-7-1-2-8(6-10)4-3-7/h1-6H

> <InChI Key_QSARr>
KUCOHFSKRZZVRO-UHFFFAOYSA-N

> <Salt_Solvent>


> <Salt_Solvent_ID>
0

> <MPID>
100875

> <Tr_1_Tst_0>
1

> <Ready_Biodeg>
1.0

$$$$
Row850
  Mrv171c012251911052D          

  7  6  0  0  0  0            999 V2000
    2.9096   -0.5893    0.0000 O   0  0  0  0  0  0  0  0  0  0  0  0
    2.9096    0.2357    0.0000 C   0  0  0  0  0  0  0  0  0  0  0  0
    2.1951    0.6482    0.0000 C   0  0  0  0  0  0  0  0  0  0  0  0
    1.4807    0.2357    0.0000 C   0  0  0  0  0  0  0  0  0  0  0  0
    3.6241    0.6482    0.0000 C   0  0  0  0  0  0  0  0  0  0  0  0
    4.3385    0.2357    0.0000 C   0  0  0  0  0  0  0  0  0  0  0  0
    5.0530    0.6482    0.0000 C   0  0  0  0  0  0  0  0  0  0  0  0
  1  2  1  0  0  0  0
  2  3  1  0  0  0  0
  3  4  1  0  0  0  0
  2  5  1  0  0  0  0
  5  6  1  0  0  0  0
  6  7  1  0  0  0  0
M  END
> <ChemID>
100875

> <CAS>
623-37-0

> <Original_SMILES>
CC[C@H](O)CCC

> <preferred_name>
(3S)-hexan-3-ol

> <dsstox_substance_id>
DTXSID70862314

> <dsstox_compound_id>
DTXCID20811099

> <qc_level>
Public_Low

> <Canonical_QSARr>
CCC(O)CCC

> <InChI_Code_QSARr>
InChI=1S/C6H14O/c1-3-5-6(7)4-2/h6-7H,3-5H2,1-2H3

> <InChI Key_QSARr>
ZOCHHNOQQHDWHG-UHFFFAOYSA-N

> <Salt_Solvent>


> <Salt_Solvent_ID>
0

> <MPID>
100876

> <Tr_1_Tst_0>
1

> <Ready_Biodeg>
0.0

$$$$
Row851
  Mrv171c012251911052D          

 10  9  0  0  0  0            999 V2000
    2.4750    1.4289    0.0000 C   0  0  0  0  0  0  0  0  0  0  0  0
    2.0625    0.7145    0.0000 O   0  0  0  0  0  0  0  0  0  0  0  0
    1.2375    0.7145    0.0000 C   0  0  0  0  0  0  0  0  0  0  0  0
    0.8250    1.4289    0.0000 O   0  0  0  0  0  0  0  0  0  0  0  0
    0.8250    0.0000    0.0000 C   0  0  0  0  0  0  0  0  0  0  0  0
    0.0000    0.0000    0.0000 C   0  0  0  0  0  0  0  0  0  0  0  0
   -0.4125   -0.7145    0.0000 C   0  0  0  0  0  0  0  0  0  0  0  0
    0.0000   -1.4289    0.0000 O   0  0  0  0  0  0  0  0  0  0  0  0
   -1.2375   -0.7145    0.0000 O   0  0  0  0  0  0  0  0  0  0  0  0
   -1.6500   -1.4289    0.0000 C   0  0  0  0  0  0  0  0  0  0  0  0
  1  2  1  0  0  0  0
  2  3  1  0  0  0  0
  3  4  2  0  0  0  0
  5  3  1  4  0  0  0
  5  6  2  0  0  0  0
  6  7  1  0  0  0  0
  7  8  2  0  0  0  0
  7  9  1  0  0  0  0
  9 10  1  0  0  0  0
M  END
> <ChemID>
100877

> <CAS>
624-48-6|624-49-7

> <Original_SMILES>
COC(=O)/C=C\C(=O)OC

> <preferred_name>
Dimethyl maleate|2-Butenedioic acid (2E)-, 1,4-dimethyl ester

> <dsstox_substance_id>
DTXSID4040765|DTXSID4060787

> <dsstox_compound_id>
DTXCID2020765|DTXCID6043335

> <qc_level>
DSSTox_Low

> <Canonical_QSARr>
COC(=O)C=CC(=O)OC

> <InChI_Code_QSARr>
InChI=1S/C6H8O4/c1-9-5(7)3-4-6(8)10-2/h3-4H,1-2H3

> <InChI Key_QSARr>
LDCRTTXIJACKKU-UHFFFAOYSA-N

> <Salt_Solvent>


> <Salt_Solvent_ID>
0

> <MPID>
100878|100879

> <Tr_1_Tst_0>
1

> <Ready_Biodeg>
1.0

$$$$
Row852
  Mrv171c012251911052D          

  6  5  0  0  0  0            999 V2000
    1.8563   -0.3572    0.0000 N   0  0  0  0  0  0  0  0  0  0  0  0
    1.4437    0.3572    0.0000 C   0  0  0  0  0  0  0  0  0  0  0  0
    1.8562    1.0717    0.0000 C   0  0  0  0  0  0  0  0  0  0  0  0
    1.4438   -1.0717    0.0000 C   0  0  0  0  0  0  0  0  0  0  0  0
    1.8563   -1.7862    0.0000 O   0  0  0  0  0  0  0  0  0  0  0  0
    0.6188   -1.0717    0.0000 C   0  0  0  0  0  0  0  0  0  0  0  0
  1  2  1  0  0  0  0
  2  3  1  0  0  0  0
  1  4  1  0  0  0  0
  4  5  2  0  0  0  0
  4  6  1  0  0  0  0
M  END
> <ChemID>
100879

> <CAS>
625-50-3

> <Original_SMILES>
CCNC(C)=O

> <preferred_name>
Acetamide, N-ethyl-

> <dsstox_substance_id>
DTXSID5060803

> <dsstox_compound_id>
DTXCID7043370

> <qc_level>
Public_High

> <Canonical_QSARr>
CCNC(C)=O

> <InChI_Code_QSARr>
InChI=1S/C4H9NO/c1-3-5-4(2)6/h3H2,1-2H3,(H,5,6)

> <InChI Key_QSARr>
PMDCZENCAXMSOU-UHFFFAOYSA-N

> <Salt_Solvent>


> <Salt_Solvent_ID>
0

> <MPID>
100880

> <Tr_1_Tst_0>
0

> <Ready_Biodeg>
1.0

$$$$
Row853
  Mrv171c012251911052D          

  7  6  0  0  0  0            999 V2000
    1.9037    0.9592    0.0000 C   0  0  0  0  0  0  0  0  0  0  0  0
    1.4912    0.2447    0.0000 C   0  0  0  0  0  0  0  0  0  0  0  0
    0.6662    0.2447    0.0000 O   0  0  0  0  0  0  0  0  0  0  0  0
    1.9037   -0.4698    0.0000 C   0  0  0  0  0  0  0  0  0  0  0  0
    1.4912   -1.1843    0.0000 C   0  0  0  0  0  0  0  0  0  0  0  0
    1.9037   -1.8987    0.0000 O   0  0  0  0  0  0  0  0  0  0  0  0
    0.6662   -1.1843    0.0000 C   0  0  0  0  0  0  0  0  0  0  0  0
  1  2  1  0  0  0  0
  2  3  1  0  0  0  0
  2  4  1  0  0  0  0
  4  5  1  0  0  0  0
  5  6  1  0  0  0  0
  5  7  1  0  0  0  0
M  END
> <ChemID>
100880

> <CAS>
625-69-4

> <Original_SMILES>
CC(O)CC(C)O

> <preferred_name>
2,4-Pentanediol

> <dsstox_substance_id>
DTXSID9032878

> <dsstox_compound_id>
DTXCID7012878

> <qc_level>
DSSTox_Low

> <Canonical_QSARr>
CC(O)CC(C)O

> <InChI_Code_QSARr>
InChI=1S/C5H12O2/c1-4(6)3-5(2)7/h4-7H,3H2,1-2H3

> <InChI Key_QSARr>
GTCCGKPBSJZVRZ-UHFFFAOYSA-N

> <Salt_Solvent>


> <Salt_Solvent_ID>
0

> <MPID>
100881

> <Tr_1_Tst_0>
1

> <Ready_Biodeg>
1.0

$$$$
Row854
  Mrv171c012251911052D          

 10 10  0  0  0  0            999 V2000
    2.4959   -1.4477    0.0000 C   0  0  0  0  0  0  0  0  0  0  0  0
    3.2104   -1.8602    0.0000 C   0  0  0  0  0  0  0  0  0  0  0  0
    3.9248   -2.2727    0.0000 N   0  0  0  0  0  0  0  0  0  0  0  0
    2.4959   -0.6227    0.0000 C   0  0  0  0  0  0  0  0  0  0  0  0
    1.7814   -0.2102    0.0000 C   0  0  0  0  0  0  0  0  0  0  0  0
    1.7814    0.6148    0.0000 C   0  0  0  0  0  0  0  0  0  0  0  0
    1.7814    1.4398    0.0000 N   0  0  0  0  0  0  0  0  0  0  0  0
    1.0670   -0.6227    0.0000 C   0  0  0  0  0  0  0  0  0  0  0  0
    1.0670   -1.4477    0.0000 C   0  0  0  0  0  0  0  0  0  0  0  0
    1.7814   -1.8602    0.0000 C   0  0  0  0  0  0  0  0  0  0  0  0
  1  2  1  0  0  0  0
  2  3  3  0  0  0  0
  4  1  1  0  0  0  0
  5  4  2  0  0  0  0
  5  6  1  0  0  0  0
  6  7  3  0  0  0  0
  8  5  1  0  0  0  0
  9  8  2  0  0  0  0
 10  9  1  0  0  0  0
  1 10  2  0  0  0  0
M  END
> <ChemID>
100881

> <CAS>
626-17-5

> <Original_SMILES>
N#Cc1cc(ccc1)C#N

> <preferred_name>
1,3-Benzenedicarbonitrile

> <dsstox_substance_id>
DTXSID7027259

> <dsstox_compound_id>
DTXCID207259

> <qc_level>
DSSTox_Low

> <Canonical_QSARr>
N#CC1C=C(C=CC=1)C#N

> <InChI_Code_QSARr>
InChI=1S/C8H4N2/c9-5-7-2-1-3-8(4-7)6-10/h1-4H

> <InChI Key_QSARr>
LAQPNDIUHRHNCV-UHFFFAOYSA-N

> <Salt_Solvent>


> <Salt_Solvent_ID>
0

> <MPID>
100882

> <Tr_1_Tst_0>
1

> <Ready_Biodeg>
0.0

$$$$
Row855
  Mrv171c012251911052D          

  9  9  0  0  0  0            999 V2000
    2.8607   -2.4795    0.0000 N   0  0  0  0  0  0  0  0  0  0  0  0
    2.1462   -2.0670    0.0000 C   0  0  0  0  0  0  0  0  0  0  0  0
    2.1462   -1.2420    0.0000 C   0  0  0  0  0  0  0  0  0  0  0  0
    1.4318   -0.8295    0.0000 C   0  0  0  0  0  0  0  0  0  0  0  0
    1.4318   -0.0045    0.0000 Cl  0  0  0  0  0  0  0  0  0  0  0  0
    0.7173   -1.2420    0.0000 C   0  0  0  0  0  0  0  0  0  0  0  0
    0.7173   -2.0670    0.0000 C   0  0  0  0  0  0  0  0  0  0  0  0
    0.0028   -2.4795    0.0000 Cl  0  0  0  0  0  0  0  0  0  0  0  0
    1.4318   -2.4795    0.0000 C   0  0  0  0  0  0  0  0  0  0  0  0
  1  2  1  0  0  0  0
  3  2  1  0  0  0  0
  4  3  2  0  0  0  0
  4  5  1  0  0  0  0
  6  4  1  0  0  0  0
  7  6  2  0  0  0  0
  7  8  1  0  0  0  0
  9  7  1  0  0  0  0
  2  9  2  0  0  0  0
M  END
> <ChemID>
100882

> <CAS>
626-43-7

> <Original_SMILES>
Nc1cc(Cl)cc(Cl)c1

> <preferred_name>
3,5-Dichloroaniline

> <dsstox_substance_id>
DTXSID7030307

> <dsstox_compound_id>
DTXCID5010307

> <qc_level>
DSSTox_Low

> <Canonical_QSARr>
NC1C=C(Cl)C=C(Cl)C=1

> <InChI_Code_QSARr>
InChI=1S/C6H5Cl2N/c7-4-1-5(8)3-6(9)2-4/h1-3H,9H2

> <InChI Key_QSARr>
UQRLKWGPEVNVHT-UHFFFAOYSA-N

> <Salt_Solvent>


> <Salt_Solvent_ID>
0

> <MPID>
100883

> <Tr_1_Tst_0>
1

> <Ready_Biodeg>
0.0

$$$$
Row856
  Mrv171c012251911052D          

  7  7  0  0  0  0            999 V2000
    0.7145    1.2375    0.0000 N   0  0  0  0  0  0  0  0  0  0  0  0
    0.7145    2.0625    0.0000 C   0  0  0  0  0  0  0  0  0  0  0  0
   -0.0000    0.8250    0.0000 C   0  0  0  0  0  0  0  0  0  0  0  0
   -0.0000   -0.0000    0.0000 C   0  0  0  0  0  0  0  0  0  0  0  0
    0.7145   -0.4125    0.0000 C   0  0  0  0  0  0  0  0  0  0  0  0
    1.4289    0.0000    0.0000 C   0  0  0  0  0  0  0  0  0  0  0  0
    1.4289    0.8250    0.0000 C   0  0  0  0  0  0  0  0  0  0  0  0
  1  2  1  0  0  0  0
  3  1  1  0  0  0  0
  4  3  1  0  0  0  0
  5  4  1  0  0  0  0
  6  5  1  0  0  0  0
  7  6  1  0  0  0  0
  1  7  1  0  0  0  0
M  END
> <ChemID>
100884

> <CAS>
626-67-5

> <Original_SMILES>
CN1CCCCC1

> <preferred_name>
Piperidine, 1-methyl-

> <dsstox_substance_id>
DTXSID8060822

> <dsstox_compound_id>
DTXCID0043420

> <qc_level>
Public_High

> <Canonical_QSARr>
CN1CCCCC1

> <InChI_Code_QSARr>
InChI=1S/C6H13N/c1-7-5-3-2-4-6-7/h2-6H2,1H3

> <InChI Key_QSARr>
PAMIQIKDUOTOBW-UHFFFAOYSA-N

> <Salt_Solvent>


> <Salt_Solvent_ID>
0

> <MPID>
100885

> <Tr_1_Tst_0>
0

> <Ready_Biodeg>
0.0

$$$$
Row857
  Mrv171c012251911052D          

 12 11  0  0  0  0            999 V2000
    2.0651   -0.7977    0.0000 C   0  0  0  0  0  0  0  0  0  0  0  0
    2.0651    0.0273    0.0000 O   0  0  0  0  0  0  0  0  0  0  0  0
    1.3506   -1.2102    0.0000 O   0  0  0  0  0  0  0  0  0  0  0  0
    0.6361   -0.7977    0.0000 C   0  0  0  0  0  0  0  0  0  0  0  0
   -0.0783   -1.2102    0.0000 C   0  0  0  0  0  0  0  0  0  0  0  0
    2.7795   -1.2102    0.0000 C   0  0  0  0  0  0  0  0  0  0  0  0
    3.4940   -0.7977    0.0000 C   0  0  0  0  0  0  0  0  0  0  0  0
    4.2085   -1.2102    0.0000 C   0  0  0  0  0  0  0  0  0  0  0  0
    4.9230   -0.7977    0.0000 C   0  0  0  0  0  0  0  0  0  0  0  0
    5.6374   -1.2102    0.0000 C   0  0  0  0  0  0  0  0  0  0  0  0
    6.3519   -0.7977    0.0000 O   0  0  0  0  0  0  0  0  0  0  0  0
    5.6374   -2.0352    0.0000 O   0  0  0  0  0  0  0  0  0  0  0  0
  1  2  2  0  0  0  0
  1  3  1  0  0  0  0
  3  4  1  0  0  0  0
  4  5  1  0  0  0  0
  1  6  1  0  0  0  0
  6  7  1  0  0  0  0
  7  8  1  0  0  0  0
  8  9  1  0  0  0  0
  9 10  1  0  0  0  0
 10 11  2  0  0  0  0
 10 12  1  0  0  0  0
M  END
> <ChemID>
100885

> <CAS>
626-86-8

> <Original_SMILES>
CCOC(=O)CCCCC(O)=O

> <preferred_name>


> <dsstox_substance_id>
DTXSID70862319

> <dsstox_compound_id>
DTXCID10811104

> <qc_level>


> <Canonical_QSARr>
CCOC(=O)CCCCC(O)=O

> <InChI_Code_QSARr>
InChI=1S/C8H14O4/c1-2-12-8(11)6-4-3-5-7(9)10/h2-6H2,1H3,(H,9,10)

> <InChI Key_QSARr>
UZNLHJCCGYKCIL-UHFFFAOYSA-N

> <Salt_Solvent>


> <Salt_Solvent_ID>
0

> <MPID>
100886

> <Tr_1_Tst_0>
1

> <Ready_Biodeg>
1.0

$$$$
Row858
  Mrv171c012251911052D          

  7  6  0  0  0  0            999 V2000
   -0.0093   -0.7082    0.0000 C   0  0  0  0  0  0  0  0  0  0  0  0
    0.7051   -0.2957    0.0000 C   0  0  0  0  0  0  0  0  0  0  0  0
    0.7051    0.5293    0.0000 O   0  0  0  0  0  0  0  0  0  0  0  0
    1.4196   -0.7082    0.0000 C   0  0  0  0  0  0  0  0  0  0  0  0
    2.1341   -0.2957    0.0000 C   0  0  0  0  0  0  0  0  0  0  0  0
    2.8485   -0.7082    0.0000 C   0  0  0  0  0  0  0  0  0  0  0  0
    3.5630   -0.2957    0.0000 C   0  0  0  0  0  0  0  0  0  0  0  0
  1  2  1  0  0  0  0
  2  3  1  0  0  0  0
  2  4  1  0  0  0  0
  4  5  1  0  0  0  0
  5  6  1  0  0  0  0
  6  7  1  0  0  0  0
M  END
> <ChemID>
100886

> <CAS>
54972-97-3

> <Original_SMILES>
CCCCC(C)O

> <preferred_name>


> <dsstox_substance_id>
DTXSID80862320

> <dsstox_compound_id>
DTXCID501323274

> <qc_level>


> <Canonical_QSARr>
CCCCC(C)O

> <InChI_Code_QSARr>
InChI=1S/C6H14O/c1-3-4-5-6(2)7/h6-7H,3-5H2,1-2H3

> <InChI Key_QSARr>
QNVRIHYSUZMSGM-UHFFFAOYSA-N

> <Salt_Solvent>


> <Salt_Solvent_ID>
0

> <MPID>
100887

> <Tr_1_Tst_0>
1

> <Ready_Biodeg>
0.0

$$$$
Row859
  Mrv171c012251911052D          

 14 13  0  0  0  0            999 V2000
   -0.7144    0.1179    0.0000 O   0  0  0  0  0  0  0  0  0  0  0  0
    0.0001   -0.2946    0.0000 C   0  0  0  0  0  0  0  0  0  0  0  0
    0.7145    0.1179    0.0000 C   0  0  0  0  0  0  0  0  0  0  0  0
    1.4290   -0.2946    0.0000 C   0  0  0  0  0  0  0  0  0  0  0  0
    2.1435    0.1179    0.0000 C   0  0  0  0  0  0  0  0  0  0  0  0
    2.8580   -0.2946    0.0000 C   0  0  0  0  0  0  0  0  0  0  0  0
    3.5724    0.1179    0.0000 C   0  0  0  0  0  0  0  0  0  0  0  0
    4.2869   -0.2946    0.0000 C   0  0  0  0  0  0  0  0  0  0  0  0
    5.0014    0.1179    0.0000 C   0  0  0  0  0  0  0  0  0  0  0  0
    5.7158   -0.2946    0.0000 C   0  0  0  0  0  0  0  0  0  0  0  0
    6.4303    0.1179    0.0000 C   0  0  0  0  0  0  0  0  0  0  0  0
    7.1448   -0.2946    0.0000 C   0  0  0  0  0  0  0  0  0  0  0  0
    7.8593    0.1179    0.0000 C   0  0  0  0  0  0  0  0  0  0  0  0
    0.0001   -1.1196    0.0000 O   0  0  0  0  0  0  0  0  0  0  0  0
  1  2  1  0  0  0  0
  2  3  1  0  0  0  0
  3  4  1  0  0  0  0
  4  5  1  0  0  0  0
  5  6  1  0  0  0  0
  6  7  1  0  0  0  0
  7  8  1  0  0  0  0
  8  9  1  0  0  0  0
  9 10  1  0  0  0  0
 10 11  1  0  0  0  0
 11 12  1  0  0  0  0
 12 13  1  0  0  0  0
  2 14  2  0  0  0  0
M  END
> <ChemID>
100887

> <CAS>
629-25-4

> <Original_SMILES>
[Na+].CCCCCCCCCCCC([O-])=O

> <preferred_name>
Sodium dodecanoate

> <dsstox_substance_id>
DTXSID9044453

> <dsstox_compound_id>
DTXCID7024453

> <qc_level>
DSSTox_Low

> <Canonical_QSARr>
CCCCCCCCCCCC(O)=O

> <InChI_Code_QSARr>
InChI=1S/C12H24O2/c1-2-3-4-5-6-7-8-9-10-11-12(13)14/h2-11H2,1H3,(H,13,14)

> <InChI Key_QSARr>
POULHZVOKOAJMA-UHFFFAOYSA-N

> <Salt_Solvent>
[Na+]

> <Salt_Solvent_ID>
110

> <MPID>
100888

> <Tr_1_Tst_0>
1

> <Ready_Biodeg>
1.0

$$$$
Row860
  Mrv171c012251911052D          

 13 12  0  0  0  0            999 V2000
   -0.0259   -0.0344    0.0000 C   0  0  0  0  0  0  0  0  0  0  0  0
    0.6885   -0.4469    0.0000 C   0  0  0  0  0  0  0  0  0  0  0  0
    1.4030   -0.0344    0.0000 C   0  0  0  0  0  0  0  0  0  0  0  0
    2.1175   -0.4469    0.0000 C   0  0  0  0  0  0  0  0  0  0  0  0
    2.8320   -0.0344    0.0000 C   0  0  0  0  0  0  0  0  0  0  0  0
    3.5464   -0.4469    0.0000 C   0  0  0  0  0  0  0  0  0  0  0  0
    4.2609   -0.0344    0.0000 C   0  0  0  0  0  0  0  0  0  0  0  0
    4.9754   -0.4469    0.0000 C   0  0  0  0  0  0  0  0  0  0  0  0
    5.6898   -0.0344    0.0000 C   0  0  0  0  0  0  0  0  0  0  0  0
    6.4043   -0.4469    0.0000 C   0  0  0  0  0  0  0  0  0  0  0  0
    7.1188   -0.0344    0.0000 C   0  0  0  0  0  0  0  0  0  0  0  0
    7.8332   -0.4469    0.0000 C   0  0  0  0  0  0  0  0  0  0  0  0
    8.5477   -0.0344    0.0000 C   0  0  0  0  0  0  0  0  0  0  0  0
  1  2  1  0  0  0  0
  2  3  1  0  0  0  0
  3  4  1  0  0  0  0
  4  5  1  0  0  0  0
  5  6  1  0  0  0  0
  6  7  1  0  0  0  0
  7  8  1  0  0  0  0
  8  9  1  0  0  0  0
  9 10  1  0  0  0  0
 10 11  1  0  0  0  0
 11 12  1  0  0  0  0
 12 13  1  0  0  0  0
M  END
> <ChemID>
100888

> <CAS>
629-50-5

> <Original_SMILES>
CCCCCCCCCCCCC

> <preferred_name>
Tridecane

> <dsstox_substance_id>
DTXSID6027266

> <dsstox_compound_id>
DTXCID307266

> <qc_level>
DSSTox_Low

> <Canonical_QSARr>
CCCCCCCCCCCCC

> <InChI_Code_QSARr>
InChI=1S/C13H28/c1-3-5-7-9-11-13-12-10-8-6-4-2/h3-13H2,1-2H3

> <InChI Key_QSARr>
IIYFAKIEWZDVMP-UHFFFAOYSA-N

> <Salt_Solvent>


> <Salt_Solvent_ID>
0

> <MPID>
100889

> <Tr_1_Tst_0>
1

> <Ready_Biodeg>
1.0

$$$$
Row861
  Mrv171c012251911052D          

 14 13  0  0  0  0            999 V2000
   -0.0189   -0.4144    0.0000 C   0  0  0  0  0  0  0  0  0  0  0  0
    0.6956   -0.0019    0.0000 C   0  0  0  0  0  0  0  0  0  0  0  0
    1.4100   -0.4144    0.0000 C   0  0  0  0  0  0  0  0  0  0  0  0
    2.1245   -0.0019    0.0000 C   0  0  0  0  0  0  0  0  0  0  0  0
    2.8390   -0.4144    0.0000 C   0  0  0  0  0  0  0  0  0  0  0  0
    3.5535   -0.0019    0.0000 C   0  0  0  0  0  0  0  0  0  0  0  0
    4.2679   -0.4144    0.0000 C   0  0  0  0  0  0  0  0  0  0  0  0
    4.9824   -0.0019    0.0000 C   0  0  0  0  0  0  0  0  0  0  0  0
    5.6969   -0.4144    0.0000 C   0  0  0  0  0  0  0  0  0  0  0  0
    6.4113   -0.0019    0.0000 C   0  0  0  0  0  0  0  0  0  0  0  0
    7.1258   -0.4144    0.0000 C   0  0  0  0  0  0  0  0  0  0  0  0
    7.8403   -0.0019    0.0000 C   0  0  0  0  0  0  0  0  0  0  0  0
    8.5548   -0.4144    0.0000 C   0  0  0  0  0  0  0  0  0  0  0  0
    9.2692   -0.0019    0.0000 C   0  0  0  0  0  0  0  0  0  0  0  0
  1  2  1  0  0  0  0
  2  3  1  0  0  0  0
  3  4  1  0  0  0  0
  4  5  1  0  0  0  0
  5  6  1  0  0  0  0
  6  7  1  0  0  0  0
  7  8  1  0  0  0  0
  8  9  1  0  0  0  0
  9 10  1  0  0  0  0
 10 11  1  0  0  0  0
 11 12  1  0  0  0  0
 12 13  1  0  0  0  0
 13 14  1  0  0  0  0
M  END
> <ChemID>
100889

> <CAS>
629-59-4

> <Original_SMILES>
CCCCCCCCCCCCCC

> <preferred_name>
Tetradecane

> <dsstox_substance_id>
DTXSID1027267

> <dsstox_compound_id>
DTXCID707267

> <qc_level>
DSSTox_Low

> <Canonical_QSARr>
CCCCCCCCCCCCCC

> <InChI_Code_QSARr>
InChI=1S/C14H30/c1-3-5-7-9-11-13-14-12-10-8-6-4-2/h3-14H2,1-2H3

> <InChI Key_QSARr>
BGHCVCJVXZWKCC-UHFFFAOYSA-N

> <Salt_Solvent>


> <Salt_Solvent_ID>
0

> <MPID>
100890

> <Tr_1_Tst_0>
0

> <Ready_Biodeg>
1.0

$$$$
Row862
  Mrv171c012251911052D          

 15 14  0  0  0  0            999 V2000
   -0.0013   -0.0315    0.0000 C   0  0  0  0  0  0  0  0  0  0  0  0
    0.7132   -0.4440    0.0000 C   0  0  0  0  0  0  0  0  0  0  0  0
    1.4276   -0.0315    0.0000 C   0  0  0  0  0  0  0  0  0  0  0  0
    2.1421   -0.4440    0.0000 C   0  0  0  0  0  0  0  0  0  0  0  0
    2.8566   -0.0315    0.0000 C   0  0  0  0  0  0  0  0  0  0  0  0
    3.5710   -0.4440    0.0000 C   0  0  0  0  0  0  0  0  0  0  0  0
    4.2855   -0.0315    0.0000 C   0  0  0  0  0  0  0  0  0  0  0  0
    5.0000   -0.4440    0.0000 C   0  0  0  0  0  0  0  0  0  0  0  0
    5.7145   -0.0315    0.0000 C   0  0  0  0  0  0  0  0  0  0  0  0
    6.4289   -0.4440    0.0000 C   0  0  0  0  0  0  0  0  0  0  0  0
    7.1434   -0.0315    0.0000 C   0  0  0  0  0  0  0  0  0  0  0  0
    7.8579   -0.4440    0.0000 C   0  0  0  0  0  0  0  0  0  0  0  0
    8.5723   -0.0315    0.0000 C   0  0  0  0  0  0  0  0  0  0  0  0
    9.2868   -0.4440    0.0000 C   0  0  0  0  0  0  0  0  0  0  0  0
   10.0013   -0.0315    0.0000 C   0  0  0  0  0  0  0  0  0  0  0  0
  1  2  1  0  0  0  0
  2  3  1  0  0  0  0
  3  4  1  0  0  0  0
  4  5  1  0  0  0  0
  5  6  1  0  0  0  0
  6  7  1  0  0  0  0
  7  8  1  0  0  0  0
  8  9  1  0  0  0  0
  9 10  1  0  0  0  0
 10 11  1  0  0  0  0
 11 12  1  0  0  0  0
 12 13  1  0  0  0  0
 13 14  1  0  0  0  0
 14 15  1  0  0  0  0
M  END
> <ChemID>
100890

> <CAS>
629-62-9

> <Original_SMILES>
CCCCCCCCCCCCCCC

> <preferred_name>
Pentadecane

> <dsstox_substance_id>
DTXSID6027268

> <dsstox_compound_id>
DTXCID107268

> <qc_level>
DSSTox_Low

> <Canonical_QSARr>
CCCCCCCCCCCCCCC

> <InChI_Code_QSARr>
InChI=1S/C15H32/c1-3-5-7-9-11-13-15-14-12-10-8-6-4-2/h3-15H2,1-2H3

> <InChI Key_QSARr>
YCOZIPAWZNQLMR-UHFFFAOYSA-N

> <Salt_Solvent>


> <Salt_Solvent_ID>
0

> <MPID>
100891

> <Tr_1_Tst_0>
1

> <Ready_Biodeg>
1.0

$$$$
Row863
  Mrv171c012251911052D          

 16 15  0  0  0  0            999 V2000
    0.0216   -0.4161    0.0000 C   0  0  0  0  0  0  0  0  0  0  0  0
    0.7360   -0.0036    0.0000 C   0  0  0  0  0  0  0  0  0  0  0  0
    1.4505   -0.4161    0.0000 C   0  0  0  0  0  0  0  0  0  0  0  0
    2.1650   -0.0036    0.0000 C   0  0  0  0  0  0  0  0  0  0  0  0
    2.8795   -0.4161    0.0000 C   0  0  0  0  0  0  0  0  0  0  0  0
    3.5939   -0.0036    0.0000 C   0  0  0  0  0  0  0  0  0  0  0  0
    4.3084   -0.4161    0.0000 C   0  0  0  0  0  0  0  0  0  0  0  0
    5.0229   -0.0036    0.0000 C   0  0  0  0  0  0  0  0  0  0  0  0
    5.7373   -0.4161    0.0000 C   0  0  0  0  0  0  0  0  0  0  0  0
    6.4518   -0.0036    0.0000 C   0  0  0  0  0  0  0  0  0  0  0  0
    7.1663   -0.4161    0.0000 C   0  0  0  0  0  0  0  0  0  0  0  0
    7.8808   -0.0036    0.0000 C   0  0  0  0  0  0  0  0  0  0  0  0
    8.5952   -0.4161    0.0000 C   0  0  0  0  0  0  0  0  0  0  0  0
    9.3097   -0.0036    0.0000 C   0  0  0  0  0  0  0  0  0  0  0  0
   10.0242   -0.4161    0.0000 C   0  0  0  0  0  0  0  0  0  0  0  0
   10.7386   -0.0036    0.0000 C   0  0  0  0  0  0  0  0  0  0  0  0
  1  2  2  0  0  0  0
  2  3  1  0  0  0  0
  3  4  1  0  0  0  0
  4  5  1  0  0  0  0
  5  6  1  0  0  0  0
  6  7  1  0  0  0  0
  7  8  1  0  0  0  0
  8  9  1  0  0  0  0
  9 10  1  0  0  0  0
 10 11  1  0  0  0  0
 11 12  1  0  0  0  0
 12 13  1  0  0  0  0
 13 14  1  0  0  0  0
 14 15  1  0  0  0  0
 15 16  1  0  0  0  0
M  END
> <ChemID>
100891

> <CAS>
629-73-2

> <Original_SMILES>
CCCCCCCCCCCCCCC=C

> <preferred_name>
1-Hexadecene

> <dsstox_substance_id>
DTXSID1027269

> <dsstox_compound_id>
DTXCID507269

> <qc_level>
DSSTox_Low

> <Canonical_QSARr>
CCCCCCCCCCCCCCC=C

> <InChI_Code_QSARr>
InChI=1S/C16H32/c1-3-5-7-9-11-13-15-16-14-12-10-8-6-4-2/h3H,1,4-16H2,2H3

> <InChI Key_QSARr>
GQEZCXVZFLOKMC-UHFFFAOYSA-N

> <Salt_Solvent>


> <Salt_Solvent_ID>
0

> <MPID>
100892

> <Tr_1_Tst_0>
1

> <Ready_Biodeg>
1.0

$$$$
Row864
  Mrv171c012251911052D          

 16 15  0  0  0  0            999 V2000
    0.7360   -0.0036    0.0000 C   0  0  0  0  0  0  0  0  0  0  0  0
    0.0216   -0.4161    0.0000 O   0  0  0  0  0  0  0  0  0  0  0  0
    1.4505   -0.4161    0.0000 C   0  0  0  0  0  0  0  0  0  0  0  0
    2.1650   -0.0036    0.0000 C   0  0  0  0  0  0  0  0  0  0  0  0
    2.8795   -0.4161    0.0000 C   0  0  0  0  0  0  0  0  0  0  0  0
    3.5939   -0.0036    0.0000 C   0  0  0  0  0  0  0  0  0  0  0  0
    4.3084   -0.4161    0.0000 C   0  0  0  0  0  0  0  0  0  0  0  0
    5.0229   -0.0036    0.0000 C   0  0  0  0  0  0  0  0  0  0  0  0
    5.7373   -0.4161    0.0000 C   0  0  0  0  0  0  0  0  0  0  0  0
    6.4518   -0.0036    0.0000 C   0  0  0  0  0  0  0  0  0  0  0  0
    7.1663   -0.4161    0.0000 C   0  0  0  0  0  0  0  0  0  0  0  0
    7.8808   -0.0036    0.0000 C   0  0  0  0  0  0  0  0  0  0  0  0
    8.5952   -0.4161    0.0000 C   0  0  0  0  0  0  0  0  0  0  0  0
    9.3097   -0.0036    0.0000 C   0  0  0  0  0  0  0  0  0  0  0  0
   10.0242   -0.4161    0.0000 C   0  0  0  0  0  0  0  0  0  0  0  0
   10.7386   -0.0036    0.0000 C   0  0  0  0  0  0  0  0  0  0  0  0
  1  2  1  0  0  0  0
  1  3  1  0  0  0  0
  3  4  1  0  0  0  0
  4  5  1  0  0  0  0
  5  6  1  0  0  0  0
  6  7  1  0  0  0  0
  7  8  1  0  0  0  0
  8  9  1  0  0  0  0
  9 10  1  0  0  0  0
 10 11  1  0  0  0  0
 11 12  1  0  0  0  0
 12 13  1  0  0  0  0
 13 14  1  0  0  0  0
 14 15  1  0  0  0  0
 15 16  1  0  0  0  0
M  END
> <ChemID>
100892

> <CAS>
629-76-5

> <Original_SMILES>
CCCCCCCCCCCCCCCO

> <preferred_name>
1-Pentadecanol

> <dsstox_substance_id>
DTXSID0027270

> <dsstox_compound_id>
DTXCID207270

> <qc_level>
DSSTox_Low

> <Canonical_QSARr>
CCCCCCCCCCCCCCCO

> <InChI_Code_QSARr>
InChI=1S/C15H32O/c1-2-3-4-5-6-7-8-9-10-11-12-13-14-15-16/h16H,2-15H2,1H3

> <InChI Key_QSARr>
REIUXOLGHVXAEO-UHFFFAOYSA-N

> <Salt_Solvent>


> <Salt_Solvent_ID>
0

> <MPID>
100893

> <Tr_1_Tst_0>
1

> <Ready_Biodeg>
1.0

$$$$
Row865
  Mrv171c012251911052D          

 17 16  0  0  0  0            999 V2000
    0.0970    0.0140    0.0000 C   0  0  0  0  0  0  0  0  0  0  0  0
    0.8115   -0.3985    0.0000 C   0  0  0  0  0  0  0  0  0  0  0  0
    1.5259    0.0140    0.0000 C   0  0  0  0  0  0  0  0  0  0  0  0
    2.2404   -0.3985    0.0000 C   0  0  0  0  0  0  0  0  0  0  0  0
    2.9549    0.0140    0.0000 C   0  0  0  0  0  0  0  0  0  0  0  0
    3.6693   -0.3985    0.0000 C   0  0  0  0  0  0  0  0  0  0  0  0
    4.3838    0.0140    0.0000 C   0  0  0  0  0  0  0  0  0  0  0  0
    5.0983   -0.3985    0.0000 C   0  0  0  0  0  0  0  0  0  0  0  0
    5.8128    0.0140    0.0000 C   0  0  0  0  0  0  0  0  0  0  0  0
    6.5272   -0.3985    0.0000 C   0  0  0  0  0  0  0  0  0  0  0  0
    7.2417    0.0140    0.0000 C   0  0  0  0  0  0  0  0  0  0  0  0
    7.9562   -0.3985    0.0000 C   0  0  0  0  0  0  0  0  0  0  0  0
    8.6706    0.0140    0.0000 C   0  0  0  0  0  0  0  0  0  0  0  0
    9.3851   -0.3985    0.0000 C   0  0  0  0  0  0  0  0  0  0  0  0
   10.0996    0.0140    0.0000 C   0  0  0  0  0  0  0  0  0  0  0  0
   10.8140   -0.3985    0.0000 C   0  0  0  0  0  0  0  0  0  0  0  0
   11.5285    0.0140    0.0000 C   0  0  0  0  0  0  0  0  0  0  0  0
  1  2  1  0  0  0  0
  2  3  1  0  0  0  0
  3  4  1  0  0  0  0
  4  5  1  0  0  0  0
  5  6  1  0  0  0  0
  6  7  1  0  0  0  0
  7  8  1  0  0  0  0
  8  9  1  0  0  0  0
  9 10  1  0  0  0  0
 10 11  1  0  0  0  0
 11 12  1  0  0  0  0
 12 13  1  0  0  0  0
 13 14  1  0  0  0  0
 14 15  1  0  0  0  0
 15 16  1  0  0  0  0
 16 17  1  0  0  0  0
M  END
> <ChemID>
100893

> <CAS>
629-78-7

> <Original_SMILES>
CCCCCCCCCCCCCCCCC

> <preferred_name>
Heptadecane

> <dsstox_substance_id>
DTXSID7047061

> <dsstox_compound_id>
DTXCID5027061

> <qc_level>
DSSTox_Low

> <Canonical_QSARr>
CCCCCCCCCCCCCCCCC

> <InChI_Code_QSARr>
InChI=1S/C17H36/c1-3-5-7-9-11-13-15-17-16-14-12-10-8-6-4-2/h3-17H2,1-2H3

> <InChI Key_QSARr>
NDJKXXJCMXVBJW-UHFFFAOYSA-N

> <Salt_Solvent>


> <Salt_Solvent_ID>
0

> <MPID>
100894

> <Tr_1_Tst_0>
0

> <Ready_Biodeg>
1.0

$$$$
Row866
  Mrv171c012251911052D          

 17 16  0  0  0  0            999 V2000
    4.8647   -1.2331    0.0000 O   0  0  0  0  0  0  0  0  0  0  0  0
    4.1502   -1.6456    0.0000 C   0  0  0  0  0  0  0  0  0  0  0  0
    3.4357   -1.2331    0.0000 C   0  0  0  0  0  0  0  0  0  0  0  0
    2.7213   -1.6456    0.0000 C   0  0  0  0  0  0  0  0  0  0  0  0
    2.0068   -1.2331    0.0000 C   0  0  0  0  0  0  0  0  0  0  0  0
    1.2923   -1.6456    0.0000 C   0  0  0  0  0  0  0  0  0  0  0  0
    0.5779   -1.2331    0.0000 C   0  0  0  0  0  0  0  0  0  0  0  0
   -0.1366   -1.6456    0.0000 C   0  0  0  0  0  0  0  0  0  0  0  0
   -0.8511   -1.2331    0.0000 C   0  0  0  0  0  0  0  0  0  0  0  0
    5.5792   -1.6456    0.0000 C   0  0  0  0  0  0  0  0  0  0  0  0
    6.2936   -1.2331    0.0000 C   0  0  0  0  0  0  0  0  0  0  0  0
    7.0081   -1.6456    0.0000 C   0  0  0  0  0  0  0  0  0  0  0  0
    7.7226   -1.2331    0.0000 C   0  0  0  0  0  0  0  0  0  0  0  0
    8.4370   -1.6456    0.0000 C   0  0  0  0  0  0  0  0  0  0  0  0
    9.1515   -1.2331    0.0000 C   0  0  0  0  0  0  0  0  0  0  0  0
    9.8660   -1.6456    0.0000 C   0  0  0  0  0  0  0  0  0  0  0  0
   10.5805   -1.2331    0.0000 C   0  0  0  0  0  0  0  0  0  0  0  0
  1  2  1  0  0  0  0
  2  3  1  0  0  0  0
  3  4  1  0  0  0  0
  4  5  1  0  0  0  0
  5  6  1  0  0  0  0
  6  7  1  0  0  0  0
  7  8  1  0  0  0  0
  8  9  1  0  0  0  0
  1 10  1  0  0  0  0
 10 11  1  0  0  0  0
 11 12  1  0  0  0  0
 12 13  1  0  0  0  0
 13 14  1  0  0  0  0
 14 15  1  0  0  0  0
 15 16  1  0  0  0  0
 16 17  1  0  0  0  0
M  END
> <ChemID>
100894

> <CAS>
629-82-3

> <Original_SMILES>
CCCCCCCCOCCCCCCCC

> <preferred_name>


> <dsstox_substance_id>
DTXSID20862324

> <dsstox_compound_id>
DTXCID10811109

> <qc_level>


> <Canonical_QSARr>
CCCCCCCCOCCCCCCCC

> <InChI_Code_QSARr>
InChI=1S/C16H34O/c1-3-5-7-9-11-13-15-17-16-14-12-10-8-6-4-2/h3-16H2,1-2H3

> <InChI Key_QSARr>
NKJOXAZJBOMXID-UHFFFAOYSA-N

> <Salt_Solvent>


> <Salt_Solvent_ID>
0

> <MPID>
100895

> <Tr_1_Tst_0>
1

> <Ready_Biodeg>
1.0

$$$$
Row867
  Mrv171c012251911052D          

 19 18  0  0  0  0            999 V2000
   -0.0691   -0.0030    0.0000 C   0  0  0  0  0  0  0  0  0  0  0  0
    0.6454   -0.4155    0.0000 C   0  0  0  0  0  0  0  0  0  0  0  0
    1.3598   -0.0030    0.0000 C   0  0  0  0  0  0  0  0  0  0  0  0
    2.0743   -0.4155    0.0000 C   0  0  0  0  0  0  0  0  0  0  0  0
    2.7888   -0.0030    0.0000 C   0  0  0  0  0  0  0  0  0  0  0  0
    3.5033   -0.4155    0.0000 C   0  0  0  0  0  0  0  0  0  0  0  0
    4.2177   -0.0030    0.0000 C   0  0  0  0  0  0  0  0  0  0  0  0
    4.9322   -0.4155    0.0000 C   0  0  0  0  0  0  0  0  0  0  0  0
    5.6467   -0.0030    0.0000 C   0  0  0  0  0  0  0  0  0  0  0  0
    6.3611   -0.4155    0.0000 C   0  0  0  0  0  0  0  0  0  0  0  0
    7.0756   -0.0030    0.0000 C   0  0  0  0  0  0  0  0  0  0  0  0
    7.7901   -0.4155    0.0000 C   0  0  0  0  0  0  0  0  0  0  0  0
    8.5046   -0.0030    0.0000 C   0  0  0  0  0  0  0  0  0  0  0  0
    9.2190   -0.4155    0.0000 C   0  0  0  0  0  0  0  0  0  0  0  0
    9.9335   -0.0030    0.0000 C   0  0  0  0  0  0  0  0  0  0  0  0
   10.6480   -0.4155    0.0000 C   0  0  0  0  0  0  0  0  0  0  0  0
   11.3624   -0.0030    0.0000 C   0  0  0  0  0  0  0  0  0  0  0  0
   12.0769   -0.4155    0.0000 C   0  0  0  0  0  0  0  0  0  0  0  0
   12.7914   -0.0030    0.0000 C   0  0  0  0  0  0  0  0  0  0  0  0
  1  2  1  0  0  0  0
  2  3  1  0  0  0  0
  3  4  1  0  0  0  0
  4  5  1  0  0  0  0
  5  6  1  0  0  0  0
  6  7  1  0  0  0  0
  7  8  1  0  0  0  0
  8  9  1  0  0  0  0
  9 10  1  0  0  0  0
 10 11  1  0  0  0  0
 11 12  1  0  0  0  0
 12 13  1  0  0  0  0
 13 14  1  0  0  0  0
 14 15  1  0  0  0  0
 15 16  1  0  0  0  0
 16 17  1  0  0  0  0
 17 18  1  0  0  0  0
 18 19  1  0  0  0  0
M  END
> <ChemID>
100895

> <CAS>
629-92-5

> <Original_SMILES>
CCCCCCCCCCCCCCCCCCC

> <preferred_name>
Nonadecane

> <dsstox_substance_id>
DTXSID9047170

> <dsstox_compound_id>
DTXCID7027170

> <qc_level>
DSSTox_Low

> <Canonical_QSARr>
CCCCCCCCCCCCCCCCCCC

> <InChI_Code_QSARr>
InChI=1S/C19H40/c1-3-5-7-9-11-13-15-17-19-18-16-14-12-10-8-6-4-2/h3-19H2,1-2H3

> <InChI Key_QSARr>
LQERIDTXQFOHKA-UHFFFAOYSA-N

> <Salt_Solvent>


> <Salt_Solvent_ID>
0

> <MPID>
100896

> <Tr_1_Tst_0>
1

> <Ready_Biodeg>
1.0

$$$$
Row868
  Mrv171c012251911052D          

 21 20  0  0  0  0            999 V2000
   -3.0577   -1.0681    0.0000 C   0  0  0  0  0  0  0  0  0  0  0  0
   -3.7722   -0.6556    0.0000 C   0  0  0  0  0  0  0  0  0  0  0  0
   -2.3433   -0.6556    0.0000 C   0  0  0  0  0  0  0  0  0  0  0  0
   -1.6288   -1.0681    0.0000 C   0  0  0  0  0  0  0  0  0  0  0  0
   -0.9143   -0.6556    0.0000 C   0  0  0  0  0  0  0  0  0  0  0  0
   -0.1999   -1.0681    0.0000 C   0  0  0  0  0  0  0  0  0  0  0  0
    0.5146   -0.6556    0.0000 C   0  0  0  0  0  0  0  0  0  0  0  0
    1.2291   -1.0681    0.0000 C   0  0  0  0  0  0  0  0  0  0  0  0
    1.9436   -0.6556    0.0000 C   0  0  0  0  0  0  0  0  0  0  0  0
    2.6580   -1.0681    0.0000 C   0  0  0  0  0  0  0  0  0  0  0  0
    3.3725   -0.6556    0.0000 C   0  0  0  0  0  0  0  0  0  0  0  0
    4.0870   -1.0681    0.0000 C   0  0  0  0  0  0  0  0  0  0  0  0
    4.8014   -0.6556    0.0000 C   0  0  0  0  0  0  0  0  0  0  0  0
    5.5159   -1.0681    0.0000 C   0  0  0  0  0  0  0  0  0  0  0  0
    6.2304   -0.6556    0.0000 C   0  0  0  0  0  0  0  0  0  0  0  0
    6.9448   -1.0681    0.0000 C   0  0  0  0  0  0  0  0  0  0  0  0
    7.6593   -0.6556    0.0000 C   0  0  0  0  0  0  0  0  0  0  0  0
    8.3738   -1.0681    0.0000 C   0  0  0  0  0  0  0  0  0  0  0  0
    9.0883   -0.6556    0.0000 C   0  0  0  0  0  0  0  0  0  0  0  0
    9.8027   -1.0681    0.0000 C   0  0  0  0  0  0  0  0  0  0  0  0
   10.5172   -0.6556    0.0000 C   0  0  0  0  0  0  0  0  0  0  0  0
  1  2  1  0  0  0  0
  1  3  1  0  0  0  0
  3  4  1  0  0  0  0
  4  5  1  0  0  0  0
  5  6  1  0  0  0  0
  6  7  1  0  0  0  0
  7  8  1  0  0  0  0
  8  9  1  0  0  0  0
  9 10  1  0  0  0  0
 10 11  1  0  0  0  0
 11 12  1  0  0  0  0
 12 13  1  0  0  0  0
 13 14  1  0  0  0  0
 14 15  1  0  0  0  0
 15 16  1  0  0  0  0
 16 17  1  0  0  0  0
 17 18  1  0  0  0  0
 18 19  1  0  0  0  0
 19 20  1  0  0  0  0
 20 21  1  0  0  0  0
M  END
> <ChemID>
100896

> <CAS>
629-94-7

> <Original_SMILES>
CCCCCCCCCCCCCCCCCCCCC

> <preferred_name>
Heneicosane

> <dsstox_substance_id>
DTXSID9047097

> <dsstox_compound_id>
DTXCID7027097

> <qc_level>
DSSTox_Low

> <Canonical_QSARr>
CCCCCCCCCCCCCCCCCCCCC

> <InChI_Code_QSARr>
InChI=1S/C21H44/c1-3-5-7-9-11-13-15-17-19-21-20-18-16-14-12-10-8-6-4-2/h3-21H2,1-2H3

> <InChI Key_QSARr>
FNAZRRHPUDJQCJ-UHFFFAOYSA-N

> <Salt_Solvent>


> <Salt_Solvent_ID>
0

> <MPID>
100897

> <Tr_1_Tst_0>
1

> <Ready_Biodeg>
1.0

$$$$
Row869
  Mrv171c012251911052D          

 22 21  0  0  0  0            999 V2000
    0.1037   -0.4117    0.0000 C   0  0  0  0  0  0  0  0  0  0  0  0
    0.8182    0.0008    0.0000 C   0  0  0  0  0  0  0  0  0  0  0  0
    1.5327   -0.4117    0.0000 C   0  0  0  0  0  0  0  0  0  0  0  0
    2.2471    0.0008    0.0000 C   0  0  0  0  0  0  0  0  0  0  0  0
    2.9616   -0.4117    0.0000 C   0  0  0  0  0  0  0  0  0  0  0  0
    3.6761    0.0008    0.0000 C   0  0  0  0  0  0  0  0  0  0  0  0
    4.3905   -0.4117    0.0000 C   0  0  0  0  0  0  0  0  0  0  0  0
    5.1050    0.0008    0.0000 C   0  0  0  0  0  0  0  0  0  0  0  0
    5.8195   -0.4117    0.0000 C   0  0  0  0  0  0  0  0  0  0  0  0
    6.5340    0.0008    0.0000 C   0  0  0  0  0  0  0  0  0  0  0  0
    7.2484   -0.4117    0.0000 C   0  0  0  0  0  0  0  0  0  0  0  0
    7.9629    0.0008    0.0000 C   0  0  0  0  0  0  0  0  0  0  0  0
    8.6774   -0.4117    0.0000 C   0  0  0  0  0  0  0  0  0  0  0  0
    9.3918    0.0008    0.0000 C   0  0  0  0  0  0  0  0  0  0  0  0
   10.1063   -0.4117    0.0000 C   0  0  0  0  0  0  0  0  0  0  0  0
   10.8208    0.0008    0.0000 C   0  0  0  0  0  0  0  0  0  0  0  0
   11.5353   -0.4117    0.0000 C   0  0  0  0  0  0  0  0  0  0  0  0
   12.2497    0.0008    0.0000 C   0  0  0  0  0  0  0  0  0  0  0  0
   12.9642   -0.4117    0.0000 C   0  0  0  0  0  0  0  0  0  0  0  0
   13.6787    0.0008    0.0000 C   0  0  0  0  0  0  0  0  0  0  0  0
   14.3931   -0.4117    0.0000 C   0  0  0  0  0  0  0  0  0  0  0  0
   15.1076    0.0008    0.0000 C   0  0  0  0  0  0  0  0  0  0  0  0
  1  2  1  0  0  0  0
  2  3  1  0  0  0  0
  3  4  1  0  0  0  0
  4  5  1  0  0  0  0
  5  6  1  0  0  0  0
  6  7  1  0  0  0  0
  7  8  1  0  0  0  0
  8  9  1  0  0  0  0
  9 10  1  0  0  0  0
 10 11  1  0  0  0  0
 11 12  1  0  0  0  0
 12 13  1  0  0  0  0
 13 14  1  0  0  0  0
 14 15  1  0  0  0  0
 15 16  1  0  0  0  0
 16 17  1  0  0  0  0
 17 18  1  0  0  0  0
 18 19  1  0  0  0  0
 19 20  1  0  0  0  0
 20 21  1  0  0  0  0
 21 22  1  0  0  0  0
M  END
> <ChemID>
100897

> <CAS>
629-97-0

> <Original_SMILES>
CCCCCCCCCCCCCCCCCCCCCC

> <preferred_name>
Docosane

> <dsstox_substance_id>
DTXSID7047063

> <dsstox_compound_id>
DTXCID5027063

> <qc_level>
DSSTox_Low

> <Canonical_QSARr>
CCCCCCCCCCCCCCCCCCCCCC

> <InChI_Code_QSARr>
InChI=1S/C22H46/c1-3-5-7-9-11-13-15-17-19-21-22-20-18-16-14-12-10-8-6-4-2/h3-22H2,1-2H3

> <InChI Key_QSARr>
HOWGUJZVBDQJKV-UHFFFAOYSA-N

> <Salt_Solvent>


> <Salt_Solvent_ID>
0

> <MPID>
100898

> <Tr_1_Tst_0>
0

> <Ready_Biodeg>
1.0

$$$$
Row870
  Mrv171c012251911052D          

 25 24  0  0  0  0            999 V2000
   21.4702    8.2711    0.0000 C   0  0  0  0  0  0  0  0  0  0  0  0
   20.7557    7.8586    0.0000 C   0  0  0  0  0  0  0  0  0  0  0  0
   20.0413    8.2711    0.0000 C   0  0  0  0  0  0  0  0  0  0  0  0
   19.3268    7.8586    0.0000 C   0  0  0  0  0  0  0  0  0  0  0  0
   18.6123    8.2711    0.0000 C   0  0  0  0  0  0  0  0  0  0  0  0
   17.8979    7.8586    0.0000 C   0  0  0  0  0  0  0  0  0  0  0  0
   17.1834    8.2711    0.0000 C   0  0  0  0  0  0  0  0  0  0  0  0
   16.4689    7.8586    0.0000 C   0  0  0  0  0  0  0  0  0  0  0  0
   15.7544    8.2711    0.0000 C   0  0  0  0  0  0  0  0  0  0  0  0
   15.0400    7.8586    0.0000 C   0  0  0  0  0  0  0  0  0  0  0  0
   14.3255    8.2711    0.0000 C   0  0  0  0  0  0  0  0  0  0  0  0
   13.6110    7.8586    0.0000 C   0  0  0  0  0  0  0  0  0  0  0  0
   12.8966    8.2711    0.0000 C   0  0  0  0  0  0  0  0  0  0  0  0
   22.1847    7.8586    0.0000 C   0  0  0  0  0  0  0  0  0  0  0  0
   22.8992    8.2711    0.0000 C   0  0  0  0  0  0  0  0  0  0  0  0
   23.6136    7.8586    0.0000 C   0  0  0  0  0  0  0  0  0  0  0  0
   24.3281    8.2711    0.0000 C   0  0  0  0  0  0  0  0  0  0  0  0
   25.0426    7.8586    0.0000 C   0  0  0  0  0  0  0  0  0  0  0  0
   25.7570    8.2711    0.0000 C   0  0  0  0  0  0  0  0  0  0  0  0
   26.4715    7.8586    0.0000 C   0  0  0  0  0  0  0  0  0  0  0  0
   27.1860    8.2711    0.0000 C   0  0  0  0  0  0  0  0  0  0  0  0
   27.9005    7.8586    0.0000 C   0  0  0  0  0  0  0  0  0  0  0  0
   28.6149    8.2711    0.0000 C   0  0  0  0  0  0  0  0  0  0  0  0
   29.3294    7.8586    0.0000 C   0  0  0  0  0  0  0  0  0  0  0  0
   30.0439    8.2711    0.0000 C   0  0  0  0  0  0  0  0  0  0  0  0
  1  2  1  0  0  0  0
  2  3  1  0  0  0  0
  3  4  1  0  0  0  0
  4  5  1  0  0  0  0
  5  6  1  0  0  0  0
  6  7  1  0  0  0  0
  7  8  1  0  0  0  0
  8  9  1  0  0  0  0
  9 10  1  0  0  0  0
 10 11  1  0  0  0  0
 11 12  1  0  0  0  0
 12 13  1  0  0  0  0
  1 14  1  0  0  0  0
 14 15  1  0  0  0  0
 15 16  1  0  0  0  0
 16 17  1  0  0  0  0
 17 18  1  0  0  0  0
 18 19  1  0  0  0  0
 19 20  1  0  0  0  0
 20 21  1  0  0  0  0
 21 22  1  0  0  0  0
 22 23  1  0  0  0  0
 23 24  1  0  0  0  0
 24 25  1  0  0  0  0
M  END
> <ChemID>
100898

> <CAS>
629-99-2

> <Original_SMILES>
CCCCCCCCCCCCCCCCCCCCCCCCC

> <preferred_name>
Pentacosane

> <dsstox_substance_id>
DTXSID2060882

> <dsstox_compound_id>
DTXCID7043584

> <qc_level>
Public_High

> <Canonical_QSARr>
CCCCCCCCCCCCCCCCCCCCCCCCC

> <InChI_Code_QSARr>
InChI=1S/C25H52/c1-3-5-7-9-11-13-15-17-19-21-23-25-24-22-20-18-16-14-12-10-8-6-4-2/h3-25H2,1-2H3

> <InChI Key_QSARr>
YKNWIILGEFFOPE-UHFFFAOYSA-N

> <Salt_Solvent>


> <Salt_Solvent_ID>
0

> <MPID>
100899

> <Tr_1_Tst_0>
1

> <Ready_Biodeg>
1.0

$$$$
Row871
  Mrv171c012251911052D          

 26 25  0  0  0  0            999 V2000
   20.7593    7.8600    0.0000 C   0  0  0  0  0  0  0  0  0  0  0  0
   20.0449    8.2725    0.0000 C   0  0  0  0  0  0  0  0  0  0  0  0
   19.3304    7.8600    0.0000 C   0  0  0  0  0  0  0  0  0  0  0  0
   18.6159    8.2725    0.0000 C   0  0  0  0  0  0  0  0  0  0  0  0
   17.9015    7.8600    0.0000 C   0  0  0  0  0  0  0  0  0  0  0  0
   17.1870    8.2725    0.0000 C   0  0  0  0  0  0  0  0  0  0  0  0
   16.4725    7.8600    0.0000 C   0  0  0  0  0  0  0  0  0  0  0  0
   15.7580    8.2725    0.0000 C   0  0  0  0  0  0  0  0  0  0  0  0
   15.0436    7.8600    0.0000 C   0  0  0  0  0  0  0  0  0  0  0  0
   14.3291    8.2725    0.0000 C   0  0  0  0  0  0  0  0  0  0  0  0
   13.6146    7.8600    0.0000 C   0  0  0  0  0  0  0  0  0  0  0  0
   12.9002    8.2725    0.0000 C   0  0  0  0  0  0  0  0  0  0  0  0
   12.1857    7.8600    0.0000 C   0  0  0  0  0  0  0  0  0  0  0  0
   21.4738    8.2725    0.0000 C   0  0  0  0  0  0  0  0  0  0  0  0
   22.1883    7.8600    0.0000 C   0  0  0  0  0  0  0  0  0  0  0  0
   22.9027    8.2725    0.0000 C   0  0  0  0  0  0  0  0  0  0  0  0
   23.6172    7.8600    0.0000 C   0  0  0  0  0  0  0  0  0  0  0  0
   24.3317    8.2725    0.0000 C   0  0  0  0  0  0  0  0  0  0  0  0
   25.0462    7.8600    0.0000 C   0  0  0  0  0  0  0  0  0  0  0  0
   25.7606    8.2725    0.0000 C   0  0  0  0  0  0  0  0  0  0  0  0
   26.4751    7.8600    0.0000 C   0  0  0  0  0  0  0  0  0  0  0  0
   27.1896    8.2725    0.0000 C   0  0  0  0  0  0  0  0  0  0  0  0
   27.9040    7.8600    0.0000 C   0  0  0  0  0  0  0  0  0  0  0  0
   28.6185    8.2725    0.0000 C   0  0  0  0  0  0  0  0  0  0  0  0
   29.3330    7.8600    0.0000 C   0  0  0  0  0  0  0  0  0  0  0  0
   30.0475    8.2725    0.0000 C   0  0  0  0  0  0  0  0  0  0  0  0
  1  2  1  0  0  0  0
  2  3  1  0  0  0  0
  3  4  1  0  0  0  0
  4  5  1  0  0  0  0
  5  6  1  0  0  0  0
  6  7  1  0  0  0  0
  7  8  1  0  0  0  0
  8  9  1  0  0  0  0
  9 10  1  0  0  0  0
 10 11  1  0  0  0  0
 11 12  1  0  0  0  0
 12 13  1  0  0  0  0
  1 14  1  0  0  0  0
 14 15  1  0  0  0  0
 15 16  1  0  0  0  0
 16 17  1  0  0  0  0
 17 18  1  0  0  0  0
 18 19  1  0  0  0  0
 19 20  1  0  0  0  0
 20 21  1  0  0  0  0
 21 22  1  0  0  0  0
 22 23  1  0  0  0  0
 23 24  1  0  0  0  0
 24 25  1  0  0  0  0
 25 26  1  0  0  0  0
M  END
> <ChemID>
100899

> <CAS>
630-01-3

> <Original_SMILES>
CCCCCCCCCCCCCCCCCCCCCCCCCC

> <preferred_name>
Hexacosane

> <dsstox_substance_id>
DTXSID7060883

> <dsstox_compound_id>
DTXCID3043601

> <qc_level>
Public_High

> <Canonical_QSARr>
CCCCCCCCCCCCCCCCCCCCCCCCCC

> <InChI_Code_QSARr>
InChI=1S/C26H54/c1-3-5-7-9-11-13-15-17-19-21-23-25-26-24-22-20-18-16-14-12-10-8-6-4-2/h3-26H2,1-2H3

> <InChI Key_QSARr>
HMSWAIKSFDFLKN-UHFFFAOYSA-N

> <Salt_Solvent>


> <Salt_Solvent_ID>
0

> <MPID>
100900

> <Tr_1_Tst_0>
1

> <Ready_Biodeg>
1.0

$$$$
Row872
  Mrv171c012251911052D          

 28 27  0  0  0  0            999 V2000
    8.0617   -4.4266    0.0000 C   0  0  0  0  0  0  0  0  0  0  0  0
    7.3472   -4.8391    0.0000 C   0  0  0  0  0  0  0  0  0  0  0  0
    6.6327   -4.4266    0.0000 C   0  0  0  0  0  0  0  0  0  0  0  0
    5.9182   -4.8391    0.0000 C   0  0  0  0  0  0  0  0  0  0  0  0
    5.2038   -4.4266    0.0000 C   0  0  0  0  0  0  0  0  0  0  0  0
    4.4893   -4.8391    0.0000 C   0  0  0  0  0  0  0  0  0  0  0  0
    3.7748   -4.4266    0.0000 C   0  0  0  0  0  0  0  0  0  0  0  0
    3.0604   -4.8391    0.0000 C   0  0  0  0  0  0  0  0  0  0  0  0
    2.3459   -4.4266    0.0000 C   0  0  0  0  0  0  0  0  0  0  0  0
    1.6314   -4.8391    0.0000 C   0  0  0  0  0  0  0  0  0  0  0  0
    0.9169   -4.4266    0.0000 C   0  0  0  0  0  0  0  0  0  0  0  0
    0.2025   -4.8391    0.0000 C   0  0  0  0  0  0  0  0  0  0  0  0
   -0.5120   -4.4266    0.0000 C   0  0  0  0  0  0  0  0  0  0  0  0
   -1.2265   -4.8391    0.0000 C   0  0  0  0  0  0  0  0  0  0  0  0
    8.7761   -4.8391    0.0000 C   0  0  0  0  0  0  0  0  0  0  0  0
    9.4906   -4.4266    0.0000 C   0  0  0  0  0  0  0  0  0  0  0  0
   10.2051   -4.8391    0.0000 C   0  0  0  0  0  0  0  0  0  0  0  0
   10.9195   -4.4266    0.0000 C   0  0  0  0  0  0  0  0  0  0  0  0
   11.6340   -4.8391    0.0000 C   0  0  0  0  0  0  0  0  0  0  0  0
   12.3485   -4.4266    0.0000 C   0  0  0  0  0  0  0  0  0  0  0  0
   13.0630   -4.8391    0.0000 C   0  0  0  0  0  0  0  0  0  0  0  0
   13.7774   -4.4266    0.0000 C   0  0  0  0  0  0  0  0  0  0  0  0
   14.4919   -4.8391    0.0000 C   0  0  0  0  0  0  0  0  0  0  0  0
   15.2064   -4.4266    0.0000 C   0  0  0  0  0  0  0  0  0  0  0  0
   15.9208   -4.8391    0.0000 C   0  0  0  0  0  0  0  0  0  0  0  0
   16.6353   -4.4266    0.0000 C   0  0  0  0  0  0  0  0  0  0  0  0
   17.3498   -4.8391    0.0000 C   0  0  0  0  0  0  0  0  0  0  0  0
   18.0643   -4.4266    0.0000 C   0  0  0  0  0  0  0  0  0  0  0  0
  1  2  1  0  0  0  0
  2  3  1  0  0  0  0
  3  4  1  0  0  0  0
  4  5  1  0  0  0  0
  5  6  1  0  0  0  0
  6  7  1  0  0  0  0
  7  8  1  0  0  0  0
  8  9  1  0  0  0  0
  9 10  1  0  0  0  0
 10 11  1  0  0  0  0
 11 12  1  0  0  0  0
 12 13  1  0  0  0  0
 13 14  1  0  0  0  0
  1 15  1  0  0  0  0
 15 16  1  0  0  0  0
 16 17  1  0  0  0  0
 17 18  1  0  0  0  0
 18 19  1  0  0  0  0
 19 20  1  0  0  0  0
 20 21  1  0  0  0  0
 21 22  1  0  0  0  0
 22 23  1  0  0  0  0
 23 24  1  0  0  0  0
 24 25  1  0  0  0  0
 25 26  1  0  0  0  0
 26 27  1  0  0  0  0
 27 28  1  0  0  0  0
M  END
> <ChemID>
100900

> <CAS>
630-02-4

> <Original_SMILES>
CCCCCCCCCCCCCCCCCCCCCCCCCCCC

> <preferred_name>
Octacosane

> <dsstox_substance_id>
DTXSID6058639

> <dsstox_compound_id>
DTXCID4032326

> <qc_level>
DSSTox_Low

> <Canonical_QSARr>
CCCCCCCCCCCCCCCCCCCCCCCCCCCC

> <InChI_Code_QSARr>
InChI=1S/C28H58/c1-3-5-7-9-11-13-15-17-19-21-23-25-27-28-26-24-22-20-18-16-14-12-10-8-6-4-2/h3-28H2,1-2H3

> <InChI Key_QSARr>
ZYURHZPYMFLWSH-UHFFFAOYSA-N

> <Salt_Solvent>


> <Salt_Solvent_ID>
0

> <MPID>
100901

> <Tr_1_Tst_0>
1

> <Ready_Biodeg>
1.0

$$$$
Row873
  Mrv171c012251911052D          

 29 28  0  0  0  0            999 V2000
   25.3725    9.6994    0.0000 C   0  0  0  0  0  0  0  0  0  0  0  0
   24.6580    9.2869    0.0000 C   0  0  0  0  0  0  0  0  0  0  0  0
   23.9435    9.6994    0.0000 C   0  0  0  0  0  0  0  0  0  0  0  0
   23.2291    9.2869    0.0000 C   0  0  0  0  0  0  0  0  0  0  0  0
   22.5146    9.6994    0.0000 C   0  0  0  0  0  0  0  0  0  0  0  0
   21.8001    9.2869    0.0000 C   0  0  0  0  0  0  0  0  0  0  0  0
   21.0856    9.6994    0.0000 C   0  0  0  0  0  0  0  0  0  0  0  0
   20.3712    9.2869    0.0000 C   0  0  0  0  0  0  0  0  0  0  0  0
   19.6567    9.6994    0.0000 C   0  0  0  0  0  0  0  0  0  0  0  0
   18.9422    9.2869    0.0000 C   0  0  0  0  0  0  0  0  0  0  0  0
   18.2278    9.6994    0.0000 C   0  0  0  0  0  0  0  0  0  0  0  0
   17.5133    9.2869    0.0000 C   0  0  0  0  0  0  0  0  0  0  0  0
   16.7988    9.6994    0.0000 C   0  0  0  0  0  0  0  0  0  0  0  0
   16.0843    9.2869    0.0000 C   0  0  0  0  0  0  0  0  0  0  0  0
   15.3699    9.6994    0.0000 C   0  0  0  0  0  0  0  0  0  0  0  0
   26.0869    9.2869    0.0000 C   0  0  0  0  0  0  0  0  0  0  0  0
   26.8014    9.6994    0.0000 C   0  0  0  0  0  0  0  0  0  0  0  0
   27.5159    9.2869    0.0000 C   0  0  0  0  0  0  0  0  0  0  0  0
   28.2304    9.6994    0.0000 C   0  0  0  0  0  0  0  0  0  0  0  0
   28.9448    9.2869    0.0000 C   0  0  0  0  0  0  0  0  0  0  0  0
   29.6593    9.6994    0.0000 C   0  0  0  0  0  0  0  0  0  0  0  0
   30.3738    9.2869    0.0000 C   0  0  0  0  0  0  0  0  0  0  0  0
   31.0882    9.6994    0.0000 C   0  0  0  0  0  0  0  0  0  0  0  0
   31.8027    9.2869    0.0000 C   0  0  0  0  0  0  0  0  0  0  0  0
   32.5172    9.6994    0.0000 C   0  0  0  0  0  0  0  0  0  0  0  0
   33.2317    9.2869    0.0000 C   0  0  0  0  0  0  0  0  0  0  0  0
   33.9461    9.6994    0.0000 C   0  0  0  0  0  0  0  0  0  0  0  0
   34.6606    9.2869    0.0000 C   0  0  0  0  0  0  0  0  0  0  0  0
   35.3751    9.6994    0.0000 C   0  0  0  0  0  0  0  0  0  0  0  0
  1  2  1  0  0  0  0
  2  3  1  0  0  0  0
  3  4  1  0  0  0  0
  4  5  1  0  0  0  0
  5  6  1  0  0  0  0
  6  7  1  0  0  0  0
  7  8  1  0  0  0  0
  8  9  1  0  0  0  0
  9 10  1  0  0  0  0
 10 11  1  0  0  0  0
 11 12  1  0  0  0  0
 12 13  1  0  0  0  0
 13 14  1  0  0  0  0
 14 15  1  0  0  0  0
  1 16  1  0  0  0  0
 16 17  1  0  0  0  0
 17 18  1  0  0  0  0
 18 19  1  0  0  0  0
 19 20  1  0  0  0  0
 20 21  1  0  0  0  0
 21 22  1  0  0  0  0
 22 23  1  0  0  0  0
 23 24  1  0  0  0  0
 24 25  1  0  0  0  0
 25 26  1  0  0  0  0
 26 27  1  0  0  0  0
 27 28  1  0  0  0  0
 28 29  1  0  0  0  0
M  END
> <ChemID>
100901

> <CAS>
630-03-5

> <Original_SMILES>
CCCCCCCCCCCCCCCCCCCCCCCCCCCCC

> <preferred_name>
Nonacosane

> <dsstox_substance_id>
DTXSID2060884

> <dsstox_compound_id>
DTXCID8043602

> <qc_level>
Public_High

> <Canonical_QSARr>
CCCCCCCCCCCCCCCCCCCCCCCCCCCCC

> <InChI_Code_QSARr>
InChI=1S/C29H60/c1-3-5-7-9-11-13-15-17-19-21-23-25-27-29-28-26-24-22-20-18-16-14-12-10-8-6-4-2/h3-29H2,1-2H3

> <InChI Key_QSARr>
IGGUPRCHHJZPBS-UHFFFAOYSA-N

> <Salt_Solvent>


> <Salt_Solvent_ID>
0

> <MPID>
100902

> <Tr_1_Tst_0>
0

> <Ready_Biodeg>
1.0

$$$$
Row874
  Mrv171c012251911052D          

 36 35  0  0  0  0            999 V2000
   30.5219   11.8458    0.0000 C   0  0  0  0  0  0  0  0  0  0  0  0
   29.8074   11.4333    0.0000 C   0  0  0  0  0  0  0  0  0  0  0  0
   29.0930   11.8458    0.0000 C   0  0  0  0  0  0  0  0  0  0  0  0
   28.3785   11.4333    0.0000 C   0  0  0  0  0  0  0  0  0  0  0  0
   27.6640   11.8458    0.0000 C   0  0  0  0  0  0  0  0  0  0  0  0
   26.9496   11.4333    0.0000 C   0  0  0  0  0  0  0  0  0  0  0  0
   26.2351   11.8458    0.0000 C   0  0  0  0  0  0  0  0  0  0  0  0
   25.5206   11.4333    0.0000 C   0  0  0  0  0  0  0  0  0  0  0  0
   24.8061   11.8458    0.0000 C   0  0  0  0  0  0  0  0  0  0  0  0
   24.0917   11.4333    0.0000 C   0  0  0  0  0  0  0  0  0  0  0  0
   23.3772   11.8458    0.0000 C   0  0  0  0  0  0  0  0  0  0  0  0
   22.6627   11.4333    0.0000 C   0  0  0  0  0  0  0  0  0  0  0  0
   21.9483   11.8458    0.0000 C   0  0  0  0  0  0  0  0  0  0  0  0
   21.2338   11.4333    0.0000 C   0  0  0  0  0  0  0  0  0  0  0  0
   20.5193   11.8458    0.0000 C   0  0  0  0  0  0  0  0  0  0  0  0
   19.8048   11.4333    0.0000 C   0  0  0  0  0  0  0  0  0  0  0  0
   19.0904   11.8458    0.0000 C   0  0  0  0  0  0  0  0  0  0  0  0
   18.3759   11.4333    0.0000 C   0  0  0  0  0  0  0  0  0  0  0  0
   31.2364   11.4333    0.0000 C   0  0  0  0  0  0  0  0  0  0  0  0
   31.9508   11.8458    0.0000 C   0  0  0  0  0  0  0  0  0  0  0  0
   32.6653   11.4333    0.0000 C   0  0  0  0  0  0  0  0  0  0  0  0
   33.3798   11.8458    0.0000 C   0  0  0  0  0  0  0  0  0  0  0  0
   34.0943   11.4333    0.0000 C   0  0  0  0  0  0  0  0  0  0  0  0
   34.8087   11.8458    0.0000 C   0  0  0  0  0  0  0  0  0  0  0  0
   35.5232   11.4333    0.0000 C   0  0  0  0  0  0  0  0  0  0  0  0
   36.2377   11.8458    0.0000 C   0  0  0  0  0  0  0  0  0  0  0  0
   36.9521   11.4333    0.0000 C   0  0  0  0  0  0  0  0  0  0  0  0
   37.6666   11.8458    0.0000 C   0  0  0  0  0  0  0  0  0  0  0  0
   38.3811   11.4333    0.0000 C   0  0  0  0  0  0  0  0  0  0  0  0
   39.0956   11.8458    0.0000 C   0  0  0  0  0  0  0  0  0  0  0  0
   39.8100   11.4333    0.0000 C   0  0  0  0  0  0  0  0  0  0  0  0
   40.5245   11.8458    0.0000 C   0  0  0  0  0  0  0  0  0  0  0  0
   41.2390   11.4333    0.0000 C   0  0  0  0  0  0  0  0  0  0  0  0
   41.9534   11.8458    0.0000 C   0  0  0  0  0  0  0  0  0  0  0  0
   42.6679   11.4333    0.0000 C   0  0  0  0  0  0  0  0  0  0  0  0
   43.3824   11.8458    0.0000 C   0  0  0  0  0  0  0  0  0  0  0  0
  1  2  1  0  0  0  0
  2  3  1  0  0  0  0
  3  4  1  0  0  0  0
  4  5  1  0  0  0  0
  5  6  1  0  0  0  0
  6  7  1  0  0  0  0
  7  8  1  0  0  0  0
  8  9  1  0  0  0  0
  9 10  1  0  0  0  0
 10 11  1  0  0  0  0
 11 12  1  0  0  0  0
 12 13  1  0  0  0  0
 13 14  1  0  0  0  0
 14 15  1  0  0  0  0
 15 16  1  0  0  0  0
 16 17  1  0  0  0  0
 17 18  1  0  0  0  0
  1 19  1  0  0  0  0
 19 20  1  0  0  0  0
 20 21  1  0  0  0  0
 21 22  1  0  0  0  0
 22 23  1  0  0  0  0
 23 24  1  0  0  0  0
 24 25  1  0  0  0  0
 25 26  1  0  0  0  0
 26 27  1  0  0  0  0
 27 28  1  0  0  0  0
 28 29  1  0  0  0  0
 29 30  1  0  0  0  0
 30 31  1  0  0  0  0
 31 32  1  0  0  0  0
 32 33  1  0  0  0  0
 33 34  1  0  0  0  0
 34 35  1  0  0  0  0
 35 36  1  0  0  0  0
M  END
> <ChemID>
100902

> <CAS>
630-06-8

> <Original_SMILES>
CCCCCCCCCCCCCCCCCCCCCCCCCCCCCCCCCCCC

> <preferred_name>
Hexatriacontane

> <dsstox_substance_id>
DTXSID7060885

> <dsstox_compound_id>
DTXCID3043605

> <qc_level>
Public_High

> <Canonical_QSARr>
CCCCCCCCCCCCCCCCCCCCCCCCCCCCCCCCCCCC

> <InChI_Code_QSARr>
InChI=1S/C36H74/c1-3-5-7-9-11-13-15-17-19-21-23-25-27-29-31-33-35-36-34-32-30-28-26-24-22-20-18-16-14-12-10-8-6-4-2/h3-36H2,1-2H3

> <InChI Key_QSARr>
YDLYQMBWCWFRAI-UHFFFAOYSA-N

> <Salt_Solvent>


> <Salt_Solvent_ID>
0

> <MPID>
100903

> <Tr_1_Tst_0>
1

> <Ready_Biodeg>
1.0

$$$$
Row875
  Mrv171c012251911052D          

 35 34  0  0  0  0            999 V2000
   31.2312   11.4314    0.0000 C   0  0  0  0  0  0  0  0  0  0  0  0
   30.5167   11.8439    0.0000 C   0  0  0  0  0  0  0  0  0  0  0  0
   29.8022   11.4314    0.0000 C   0  0  0  0  0  0  0  0  0  0  0  0
   29.0878   11.8439    0.0000 C   0  0  0  0  0  0  0  0  0  0  0  0
   28.3733   11.4314    0.0000 C   0  0  0  0  0  0  0  0  0  0  0  0
   27.6588   11.8439    0.0000 C   0  0  0  0  0  0  0  0  0  0  0  0
   26.9444   11.4314    0.0000 C   0  0  0  0  0  0  0  0  0  0  0  0
   26.2299   11.8439    0.0000 C   0  0  0  0  0  0  0  0  0  0  0  0
   25.5154   11.4314    0.0000 C   0  0  0  0  0  0  0  0  0  0  0  0
   24.8010   11.8439    0.0000 C   0  0  0  0  0  0  0  0  0  0  0  0
   24.0865   11.4314    0.0000 C   0  0  0  0  0  0  0  0  0  0  0  0
   23.3720   11.8439    0.0000 C   0  0  0  0  0  0  0  0  0  0  0  0
   22.6575   11.4314    0.0000 C   0  0  0  0  0  0  0  0  0  0  0  0
   21.9431   11.8439    0.0000 C   0  0  0  0  0  0  0  0  0  0  0  0
   21.2286   11.4314    0.0000 C   0  0  0  0  0  0  0  0  0  0  0  0
   20.5141   11.8439    0.0000 C   0  0  0  0  0  0  0  0  0  0  0  0
   19.7997   11.4314    0.0000 C   0  0  0  0  0  0  0  0  0  0  0  0
   19.0852   11.8439    0.0000 C   0  0  0  0  0  0  0  0  0  0  0  0
   31.9457   11.8439    0.0000 C   0  0  0  0  0  0  0  0  0  0  0  0
   32.6601   11.4314    0.0000 C   0  0  0  0  0  0  0  0  0  0  0  0
   33.3746   11.8439    0.0000 C   0  0  0  0  0  0  0  0  0  0  0  0
   34.0891   11.4314    0.0000 C   0  0  0  0  0  0  0  0  0  0  0  0
   34.8035   11.8439    0.0000 C   0  0  0  0  0  0  0  0  0  0  0  0
   35.5180   11.4314    0.0000 C   0  0  0  0  0  0  0  0  0  0  0  0
   36.2325   11.8439    0.0000 C   0  0  0  0  0  0  0  0  0  0  0  0
   36.9470   11.4314    0.0000 C   0  0  0  0  0  0  0  0  0  0  0  0
   37.6614   11.8439    0.0000 C   0  0  0  0  0  0  0  0  0  0  0  0
   38.3759   11.4314    0.0000 C   0  0  0  0  0  0  0  0  0  0  0  0
   39.0904   11.8439    0.0000 C   0  0  0  0  0  0  0  0  0  0  0  0
   39.8048   11.4314    0.0000 C   0  0  0  0  0  0  0  0  0  0  0  0
   40.5193   11.8439    0.0000 C   0  0  0  0  0  0  0  0  0  0  0  0
   41.2338   11.4314    0.0000 C   0  0  0  0  0  0  0  0  0  0  0  0
   41.9483   11.8439    0.0000 C   0  0  0  0  0  0  0  0  0  0  0  0
   42.6627   11.4314    0.0000 C   0  0  0  0  0  0  0  0  0  0  0  0
   43.3772   11.8439    0.0000 C   0  0  0  0  0  0  0  0  0  0  0  0
  1  2  1  0  0  0  0
  2  3  1  0  0  0  0
  3  4  1  0  0  0  0
  4  5  1  0  0  0  0
  5  6  1  0  0  0  0
  6  7  1  0  0  0  0
  7  8  1  0  0  0  0
  8  9  1  0  0  0  0
  9 10  1  0  0  0  0
 10 11  1  0  0  0  0
 11 12  1  0  0  0  0
 12 13  1  0  0  0  0
 13 14  1  0  0  0  0
 14 15  1  0  0  0  0
 15 16  1  0  0  0  0
 16 17  1  0  0  0  0
 17 18  1  0  0  0  0
  1 19  1  0  0  0  0
 19 20  1  0  0  0  0
 20 21  1  0  0  0  0
 21 22  1  0  0  0  0
 22 23  1  0  0  0  0
 23 24  1  0  0  0  0
 24 25  1  0  0  0  0
 25 26  1  0  0  0  0
 26 27  1  0  0  0  0
 27 28  1  0  0  0  0
 28 29  1  0  0  0  0
 29 30  1  0  0  0  0
 30 31  1  0  0  0  0
 31 32  1  0  0  0  0
 32 33  1  0  0  0  0
 33 34  1  0  0  0  0
 34 35  1  0  0  0  0
M  END
> <ChemID>
100903

> <CAS>
630-07-9

> <Original_SMILES>
CCCCCCCCCCCCCCCCCCCCCCCCCCCCCCCCCCC

> <preferred_name>
Pentatriacontane

> <dsstox_substance_id>
DTXSID9074723

> <dsstox_compound_id>
DTXCID8043606

> <qc_level>
Public_High

> <Canonical_QSARr>
CCCCCCCCCCCCCCCCCCCCCCCCCCCCCCCCCCC

> <InChI_Code_QSARr>
InChI=1S/C35H72/c1-3-5-7-9-11-13-15-17-19-21-23-25-27-29-31-33-35-34-32-30-28-26-24-22-20-18-16-14-12-10-8-6-4-2/h3-35H2,1-2H3

> <InChI Key_QSARr>
VHQQPFLOGSTQPC-UHFFFAOYSA-N

> <Salt_Solvent>


> <Salt_Solvent_ID>
0

> <MPID>
100904

> <Tr_1_Tst_0>
1

> <Ready_Biodeg>
1.0

$$$$
Row876
  Mrv171c012251911052D          

  6  5  0  0  0  0            999 V2000
    1.1503   -1.6266    0.0000 C   0  0  0  0  0  0  0  0  0  0  0  0
    1.1503   -0.8016    0.0000 C   0  0  0  0  0  0  0  0  0  0  0  0
    1.1503    0.0234    0.0000 C   0  0  0  0  0  0  0  0  0  0  0  0
    0.4358    0.4359    0.0000 O   0  0  0  0  0  0  0  0  0  0  0  0
    1.9753   -0.8016    0.0000 C   0  0  0  0  0  0  0  0  0  0  0  0
    0.3253   -0.8016    0.0000 C   0  0  0  0  0  0  0  0  0  0  0  0
  1  2  1  0  0  0  0
  2  3  1  0  0  0  0
  3  4  2  0  0  0  0
  2  5  1  0  0  0  0
  2  6  1  0  0  0  0
M  END
> <ChemID>
100904

> <CAS>
630-19-3

> <Original_SMILES>
CC(C)(C)C=O

> <preferred_name>
Propanal, 2,2-dimethyl-

> <dsstox_substance_id>
DTXSID2060888

> <dsstox_compound_id>
DTXCID3043609

> <qc_level>
Public_High

> <Canonical_QSARr>
CC(C)(C)C=O

> <InChI_Code_QSARr>
InChI=1S/C5H10O/c1-5(2,3)4-6/h4H,1-3H3

> <InChI Key_QSARr>
FJJYHTVHBVXEEQ-UHFFFAOYSA-N

> <Salt_Solvent>


> <Salt_Solvent_ID>
0

> <MPID>
100905

> <Tr_1_Tst_0>
1

> <Ready_Biodeg>
1.0

$$$$
Row877
  Mrv171c012251911052D          

 13 13  0  0  0  0            999 V2000
    0.8793    0.8885    0.0000 C   0  0  0  0  0  0  0  0  0  0  0  0
    0.1649    1.3010    0.0000 S   0  0  0  0  0  0  0  0  0  0  0  0
   -0.5496    1.7135    0.0000 O   0  0  0  0  0  0  0  0  0  0  0  0
   -0.2476    0.5865    0.0000 O   0  0  0  0  0  0  0  0  0  0  0  0
    0.5774    2.0154    0.0000 O   0  0  0  0  0  0  0  0  0  0  0  0
    0.8793    0.0635    0.0000 C   0  0  0  0  0  0  0  0  0  0  0  0
    1.5938   -0.3490    0.0000 C   0  0  0  0  0  0  0  0  0  0  0  0
    2.3083    0.0635    0.0000 C   0  0  0  0  0  0  0  0  0  0  0  0
    2.3083    0.8885    0.0000 C   0  0  0  0  0  0  0  0  0  0  0  0
    1.5938    1.3010    0.0000 C   0  0  0  0  0  0  0  0  0  0  0  0
    1.5938    2.1260    0.0000 C   0  0  0  0  0  0  0  0  0  0  0  0
    0.8793    2.5385    0.0000 O   0  0  0  0  0  0  0  0  0  0  0  0
    2.3083    2.5385    0.0000 O   0  0  0  0  0  0  0  0  0  0  0  0
  1  2  1  0  0  0  0
  2  3  2  0  0  0  0
  2  4  2  0  0  0  0
  2  5  1  0  0  0  0
  6  1  1  0  0  0  0
  7  6  2  0  0  0  0
  8  7  1  0  0  0  0
  9  8  2  0  0  0  0
 10  9  1  0  0  0  0
  1 10  2  0  0  0  0
 10 11  1  0  0  0  0
 11 12  2  0  0  0  0
 11 13  1  0  0  0  0
M  END
> <ChemID>
100905

> <CAS>
632-25-7

> <Original_SMILES>
OC(=O)c1ccccc1S(O)(=O)=O

> <preferred_name>
Benzoic acid, 2-sulfo-

> <dsstox_substance_id>
DTXSID6060894

> <dsstox_compound_id>
DTXCID6043751

> <qc_level>
Public_High

> <Canonical_QSARr>
OC(=O)C1C=CC=CC=1S(O)(=O)=O

> <InChI_Code_QSARr>
InChI=1S/C7H6O5S/c8-7(9)5-3-1-2-4-6(5)13(10,11)12/h1-4H,(H,8,9)(H,10,11,12)

> <InChI Key_QSARr>
ZMPRRFPMMJQXPP-UHFFFAOYSA-N

> <Salt_Solvent>


> <Salt_Solvent_ID>
0

> <MPID>
100906

> <Tr_1_Tst_0>
0

> <Ready_Biodeg>
0.0

$$$$
Row878
  Mrv171c012251911052D          

 10 10  0  0  0  0            999 V2000
    2.9360   -0.5675    0.0000 Cl  0  0  0  0  0  0  0  0  0  0  0  0
    2.2215   -0.9800    0.0000 C   0  0  0  0  0  0  0  0  0  0  0  0
    1.5071   -0.5675    0.0000 C   0  0  0  0  0  0  0  0  0  0  0  0
    1.5071    0.2575    0.0000 Cl  0  0  0  0  0  0  0  0  0  0  0  0
    0.7926   -0.9800    0.0000 C   0  0  0  0  0  0  0  0  0  0  0  0
    0.0781   -0.5675    0.0000 Cl  0  0  0  0  0  0  0  0  0  0  0  0
    0.7926   -1.8050    0.0000 C   0  0  0  0  0  0  0  0  0  0  0  0
    1.5071   -2.2175    0.0000 C   0  0  0  0  0  0  0  0  0  0  0  0
    2.2215   -1.8050    0.0000 C   0  0  0  0  0  0  0  0  0  0  0  0
    2.9360   -2.2175    0.0000 Cl  0  0  0  0  0  0  0  0  0  0  0  0
  1  2  1  0  0  0  0
  3  2  1  0  0  0  0
  3  4  1  0  0  0  0
  5  3  2  0  0  0  0
  5  6  1  0  0  0  0
  7  5  1  0  0  0  0
  8  7  2  0  0  0  0
  9  8  1  0  0  0  0
  2  9  2  0  0  0  0
  9 10  1  0  0  0  0
M  END
> <ChemID>
100906

> <CAS>
634-66-2

> <Original_SMILES>
Clc1ccc(Cl)c(Cl)c1Cl

> <preferred_name>
1,2,3,4-Tetrachlorobenzene

> <dsstox_substance_id>
DTXSID6026088

> <dsstox_compound_id>
DTXCID206088

> <qc_level>
DSSTox_Low

> <Canonical_QSARr>
ClC1C=CC(Cl)=C(Cl)C=1Cl

> <InChI_Code_QSARr>
InChI=1S/C6H2Cl4/c7-3-1-2-4(8)6(10)5(3)9/h1-2H

> <InChI Key_QSARr>
GBDZXPJXOMHESU-UHFFFAOYSA-N

> <Salt_Solvent>


> <Salt_Solvent_ID>
0

> <MPID>
100907

> <Tr_1_Tst_0>
1

> <Ready_Biodeg>
0.0

$$$$
Row879
  Mrv171c012251911052D          

 10 10  0  0  0  0            999 V2000
    3.0980   -0.6840    0.0000 N   0  0  0  0  0  0  0  0  0  0  0  0
    2.3835   -1.0965    0.0000 C   0  0  0  0  0  0  0  0  0  0  0  0
    1.6691   -0.6840    0.0000 C   0  0  0  0  0  0  0  0  0  0  0  0
    1.6691    0.1410    0.0000 Cl  0  0  0  0  0  0  0  0  0  0  0  0
    0.9546   -1.0965    0.0000 C   0  0  0  0  0  0  0  0  0  0  0  0
    0.9546   -1.9215    0.0000 C   0  0  0  0  0  0  0  0  0  0  0  0
    0.2401   -2.3340    0.0000 Cl  0  0  0  0  0  0  0  0  0  0  0  0
    1.6691   -2.3340    0.0000 C   0  0  0  0  0  0  0  0  0  0  0  0
    2.3835   -1.9215    0.0000 C   0  0  0  0  0  0  0  0  0  0  0  0
    3.0980   -2.3340    0.0000 Cl  0  0  0  0  0  0  0  0  0  0  0  0
  1  2  1  0  0  0  0
  3  2  1  0  0  0  0
  3  4  1  0  0  0  0
  5  3  2  0  0  0  0
  6  5  1  0  0  0  0
  6  7  1  0  0  0  0
  8  6  2  0  0  0  0
  9  8  1  0  0  0  0
  2  9  2  0  0  0  0
  9 10  1  0  0  0  0
M  END
> <ChemID>
100907

> <CAS>
634-93-5

> <Original_SMILES>
Nc1c(Cl)cc(Cl)cc1Cl

> <preferred_name>
2,4,6-Trichloroaniline

> <dsstox_substance_id>
DTXSID6021379

> <dsstox_compound_id>
DTXCID401379

> <qc_level>
DSSTox_Low

> <Canonical_QSARr>
NC1C(Cl)=CC(Cl)=CC=1Cl

> <InChI_Code_QSARr>
InChI=1S/C6H4Cl3N/c7-3-1-4(8)6(10)5(9)2-3/h1-2H,10H2

> <InChI Key_QSARr>
NATVSFWWYVJTAZ-UHFFFAOYSA-N

> <Salt_Solvent>


> <Salt_Solvent_ID>
0

> <MPID>
100908

> <Tr_1_Tst_0>
1

> <Ready_Biodeg>
0.0

$$$$
Row880
  Mrv171c012251911052D          

 11 11  0  0  0  0            999 V2000
    0.9743    0.7875    0.0000 C   0  0  0  0  0  0  0  0  0  0  0  0
    1.6887    0.3750    0.0000 C   0  0  0  0  0  0  0  0  0  0  0  0
    1.6887   -0.4500    0.0000 O   0  0  0  0  0  0  0  0  0  0  0  0
    2.4032    0.7875    0.0000 O   0  0  0  0  0  0  0  0  0  0  0  0
    0.9743    1.6125    0.0000 C   0  0  0  0  0  0  0  0  0  0  0  0
    0.2598    2.0250    0.0000 C   0  0  0  0  0  0  0  0  0  0  0  0
    0.2598    2.8500    0.0000 Cl  0  0  0  0  0  0  0  0  0  0  0  0
   -0.4547    1.6125    0.0000 C   0  0  0  0  0  0  0  0  0  0  0  0
   -0.4547    0.7875    0.0000 C   0  0  0  0  0  0  0  0  0  0  0  0
    0.2598    0.3750    0.0000 C   0  0  0  0  0  0  0  0  0  0  0  0
    0.2598   -0.4500    0.0000 N   0  0  0  0  0  0  0  0  0  0  0  0
  1  2  1  0  0  0  0
  2  3  2  0  0  0  0
  2  4  1  0  0  0  0
  5  1  1  0  0  0  0
  6  5  2  0  0  0  0
  6  7  1  0  0  0  0
  8  6  1  0  0  0  0
  9  8  2  0  0  0  0
 10  9  1  0  0  0  0
  1 10  2  0  0  0  0
 10 11  1  0  0  0  0
M  END
> <ChemID>
100908

> <CAS>
635-21-2

> <Original_SMILES>
Nc1ccc(Cl)cc1C(O)=O

> <preferred_name>
Benzoic acid, 2-amino-5-chloro-

> <dsstox_substance_id>
DTXSID8060901

> <dsstox_compound_id>
DTXCID9043938

> <qc_level>
Public_High

> <Canonical_QSARr>
NC1C=CC(Cl)=CC=1C(O)=O

> <InChI_Code_QSARr>
InChI=1S/C7H6ClNO2/c8-4-1-2-6(9)5(3-4)7(10)11/h1-3H,9H2,(H,10,11)

> <InChI Key_QSARr>
IFXKXCLVKQVVDI-UHFFFAOYSA-N

> <Salt_Solvent>


> <Salt_Solvent_ID>
0

> <MPID>
100909

> <Tr_1_Tst_0>
1

> <Ready_Biodeg>
0.0

$$$$
Row881
  Mrv171c012251911052D          

 16 16  0  0  0  0            999 V2000
    2.9897   -2.9500    0.0000 C   0  0  0  0  0  0  0  0  0  0  0  0
    2.5772   -2.2355    0.0000 C   0  0  0  0  0  0  0  0  0  0  0  0
    2.1647   -1.5211    0.0000 C   0  0  0  0  0  0  0  0  0  0  0  0
    1.8627   -2.6480    0.0000 C   0  0  0  0  0  0  0  0  0  0  0  0
    1.8627   -3.4730    0.0000 O   0  0  0  0  0  0  0  0  0  0  0  0
    1.1482   -3.8855    0.0000 C   0  0  0  0  0  0  0  0  0  0  0  0
    1.1482   -4.7105    0.0000 C   0  0  0  0  0  0  0  0  0  0  0  0
    1.1482   -2.2355    0.0000 O   0  0  0  0  0  0  0  0  0  0  0  0
    3.2916   -1.8230    0.0000 O   0  0  0  0  0  0  0  0  0  0  0  0
    3.2916   -0.9980    0.0000 C   0  0  0  0  0  0  0  0  0  0  0  0
    4.0061   -0.5855    0.0000 C   0  0  0  0  0  0  0  0  0  0  0  0
    4.0061    0.2395    0.0000 C   0  0  0  0  0  0  0  0  0  0  0  0
    3.2916    0.6520    0.0000 C   0  0  0  0  0  0  0  0  0  0  0  0
    3.2916    1.4770    0.0000 Cl  0  0  0  0  0  0  0  0  0  0  0  0
    2.5772    0.2395    0.0000 C   0  0  0  0  0  0  0  0  0  0  0  0
    2.5772   -0.5855    0.0000 C   0  0  0  0  0  0  0  0  0  0  0  0
  1  2  1  0  0  0  0
  2  3  1  0  0  0  0
  2  4  1  0  0  0  0
  4  5  1  0  0  0  0
  5  6  1  0  0  0  0
  6  7  1  0  0  0  0
  4  8  2  0  0  0  0
  2  9  1  0  0  0  0
  9 10  1  0  0  0  0
 11 10  1  0  0  0  0
 12 11  2  0  0  0  0
 13 12  1  0  0  0  0
 13 14  1  0  0  0  0
 15 13  2  0  0  0  0
 16 15  1  0  0  0  0
 10 16  2  0  0  0  0
M  END
> <ChemID>
100909

> <CAS>
637-07-0

> <Original_SMILES>
CC(C)(Oc1ccc(Cl)cc1)C(=O)OCC

> <preferred_name>
Clofibrate

> <dsstox_substance_id>
DTXSID3020336

> <dsstox_compound_id>
DTXCID70336

> <qc_level>
DSSTox_Low

> <Canonical_QSARr>
CC(C)(OC1C=CC(Cl)=CC=1)C(=O)OCC

> <InChI_Code_QSARr>
InChI=1S/C12H15ClO3/c1-4-15-11(14)12(2,3)16-10-7-5-9(13)6-8-10/h5-8H,4H2,1-3H3

> <InChI Key_QSARr>
KNHUKKLJHYUCFP-UHFFFAOYSA-N

> <Salt_Solvent>


> <Salt_Solvent_ID>
0

> <MPID>
100910

> <Tr_1_Tst_0>
0

> <Ready_Biodeg>
1.0

$$$$
Row882
  Mrv171c012251911052D          

  7  6  0  0  0  0            999 V2000
   -0.1966   -1.0485    0.0000 C   0  0  0  0  0  0  0  0  0  0  0  0
    0.5178   -1.4610    0.0000 C   0  0  0  0  0  0  0  0  0  0  0  0
    1.2323   -1.0485    0.0000 C   0  0  0  0  0  0  0  0  0  0  0  0
    1.9468   -1.4610    0.0000 C   0  0  0  0  0  0  0  0  0  0  0  0
    2.6613   -1.0485    0.0000 C   0  0  0  0  0  0  0  0  0  0  0  0
    3.3757   -1.4610    0.0000 C   0  0  0  0  0  0  0  0  0  0  0  0
    4.0902   -1.0485    0.0000 I   0  0  0  0  0  0  0  0  0  0  0  0
  1  2  1  0  0  0  0
  2  3  1  0  0  0  0
  3  4  1  0  0  0  0
  4  5  1  0  0  0  0
  5  6  1  0  0  0  0
  6  7  1  0  0  0  0
M  END
> <ChemID>
100910

> <CAS>
638-45-9

> <Original_SMILES>
CCCCCCI

> <preferred_name>
Hexane,1-iodo-

> <dsstox_substance_id>
DTXSID2049341

> <dsstox_compound_id>
DTXCID2029298

> <qc_level>
DSSTox_Low

> <Canonical_QSARr>
CCCCCCI

> <InChI_Code_QSARr>
InChI=1S/C6H13I/c1-2-3-4-5-6-7/h2-6H2,1H3

> <InChI Key_QSARr>
ANOOTOPTCJRUPK-UHFFFAOYSA-N

> <Salt_Solvent>


> <Salt_Solvent_ID>
0

> <MPID>
100911

> <Tr_1_Tst_0>
1

> <Ready_Biodeg>
1.0

$$$$
Row883
  Mrv171c012251911052D          

 23 22  0  0  0  0            999 V2000
    0.0011   -0.0242    0.0000 C   0  0  0  0  0  0  0  0  0  0  0  0
    0.7156   -0.4367    0.0000 C   0  0  0  0  0  0  0  0  0  0  0  0
    1.4301   -0.0242    0.0000 C   0  0  0  0  0  0  0  0  0  0  0  0
    2.1445   -0.4367    0.0000 C   0  0  0  0  0  0  0  0  0  0  0  0
    2.8590   -0.0242    0.0000 C   0  0  0  0  0  0  0  0  0  0  0  0
    3.5735   -0.4367    0.0000 C   0  0  0  0  0  0  0  0  0  0  0  0
    4.2880   -0.0242    0.0000 C   0  0  0  0  0  0  0  0  0  0  0  0
    5.0024   -0.4367    0.0000 C   0  0  0  0  0  0  0  0  0  0  0  0
    5.7169   -0.0242    0.0000 C   0  0  0  0  0  0  0  0  0  0  0  0
    6.4314   -0.4367    0.0000 C   0  0  0  0  0  0  0  0  0  0  0  0
    7.1458   -0.0242    0.0000 C   0  0  0  0  0  0  0  0  0  0  0  0
    7.8603   -0.4367    0.0000 C   0  0  0  0  0  0  0  0  0  0  0  0
    8.5748   -0.0242    0.0000 C   0  0  0  0  0  0  0  0  0  0  0  0
    9.2892   -0.4367    0.0000 C   0  0  0  0  0  0  0  0  0  0  0  0
   10.0037   -0.0242    0.0000 C   0  0  0  0  0  0  0  0  0  0  0  0
   10.7182   -0.4367    0.0000 C   0  0  0  0  0  0  0  0  0  0  0  0
   11.4327   -0.0242    0.0000 C   0  0  0  0  0  0  0  0  0  0  0  0
   12.1471   -0.4367    0.0000 C   0  0  0  0  0  0  0  0  0  0  0  0
   12.8616   -0.0242    0.0000 C   0  0  0  0  0  0  0  0  0  0  0  0
   13.5761   -0.4367    0.0000 C   0  0  0  0  0  0  0  0  0  0  0  0
   14.2905   -0.0242    0.0000 C   0  0  0  0  0  0  0  0  0  0  0  0
   15.0050   -0.4367    0.0000 C   0  0  0  0  0  0  0  0  0  0  0  0
   15.7195   -0.0242    0.0000 C   0  0  0  0  0  0  0  0  0  0  0  0
  1  2  1  0  0  0  0
  2  3  1  0  0  0  0
  3  4  1  0  0  0  0
  4  5  1  0  0  0  0
  5  6  1  0  0  0  0
  6  7  1  0  0  0  0
  7  8  1  0  0  0  0
  8  9  1  0  0  0  0
  9 10  1  0  0  0  0
 10 11  1  0  0  0  0
 11 12  1  0  0  0  0
 12 13  1  0  0  0  0
 13 14  1  0  0  0  0
 14 15  1  0  0  0  0
 15 16  1  0  0  0  0
 16 17  1  0  0  0  0
 17 18  1  0  0  0  0
 18 19  1  0  0  0  0
 19 20  1  0  0  0  0
 20 21  1  0  0  0  0
 21 22  1  0  0  0  0
 22 23  1  0  0  0  0
M  END
> <ChemID>
100911

> <CAS>
638-67-5

> <Original_SMILES>
CCCCCCCCCCCCCCCCCCCCCCC

> <preferred_name>
Tricosane

> <dsstox_substance_id>
DTXSID7047699

> <dsstox_compound_id>
DTXCID5027697

> <qc_level>
DSSTox_Low

> <Canonical_QSARr>
CCCCCCCCCCCCCCCCCCCCCCC

> <InChI_Code_QSARr>
InChI=1S/C23H48/c1-3-5-7-9-11-13-15-17-19-21-23-22-20-18-16-14-12-10-8-6-4-2/h3-23H2,1-2H3

> <InChI Key_QSARr>
FIGVVZUWCLSUEI-UHFFFAOYSA-N

> <Salt_Solvent>


> <Salt_Solvent_ID>
0

> <MPID>
100912

> <Tr_1_Tst_0>
1

> <Ready_Biodeg>
1.0

$$$$
Row884
  Mrv171c012251911052D          

 30 29  0  0  0  0            999 V2000
   24.6594    9.2875    0.0000 C   0  0  0  0  0  0  0  0  0  0  0  0
   23.9450    9.7000    0.0000 C   0  0  0  0  0  0  0  0  0  0  0  0
   23.2305    9.2875    0.0000 C   0  0  0  0  0  0  0  0  0  0  0  0
   22.5160    9.7000    0.0000 C   0  0  0  0  0  0  0  0  0  0  0  0
   21.8016    9.2875    0.0000 C   0  0  0  0  0  0  0  0  0  0  0  0
   21.0871    9.7000    0.0000 C   0  0  0  0  0  0  0  0  0  0  0  0
   20.3726    9.2875    0.0000 C   0  0  0  0  0  0  0  0  0  0  0  0
   19.6581    9.7000    0.0000 C   0  0  0  0  0  0  0  0  0  0  0  0
   18.9437    9.2875    0.0000 C   0  0  0  0  0  0  0  0  0  0  0  0
   18.2292    9.7000    0.0000 C   0  0  0  0  0  0  0  0  0  0  0  0
   17.5147    9.2875    0.0000 C   0  0  0  0  0  0  0  0  0  0  0  0
   16.8003    9.7000    0.0000 C   0  0  0  0  0  0  0  0  0  0  0  0
   16.0858    9.2875    0.0000 C   0  0  0  0  0  0  0  0  0  0  0  0
   15.3713    9.7000    0.0000 C   0  0  0  0  0  0  0  0  0  0  0  0
   14.6569    9.2875    0.0000 C   0  0  0  0  0  0  0  0  0  0  0  0
   25.3739    9.7000    0.0000 C   0  0  0  0  0  0  0  0  0  0  0  0
   26.0884    9.2875    0.0000 C   0  0  0  0  0  0  0  0  0  0  0  0
   26.8029    9.7000    0.0000 C   0  0  0  0  0  0  0  0  0  0  0  0
   27.5173    9.2875    0.0000 C   0  0  0  0  0  0  0  0  0  0  0  0
   28.2318    9.7000    0.0000 C   0  0  0  0  0  0  0  0  0  0  0  0
   28.9463    9.2875    0.0000 C   0  0  0  0  0  0  0  0  0  0  0  0
   29.6607    9.7000    0.0000 C   0  0  0  0  0  0  0  0  0  0  0  0
   30.3752    9.2875    0.0000 C   0  0  0  0  0  0  0  0  0  0  0  0
   31.0897    9.7000    0.0000 C   0  0  0  0  0  0  0  0  0  0  0  0
   31.8042    9.2875    0.0000 C   0  0  0  0  0  0  0  0  0  0  0  0
   32.5186    9.7000    0.0000 C   0  0  0  0  0  0  0  0  0  0  0  0
   33.2331    9.2875    0.0000 C   0  0  0  0  0  0  0  0  0  0  0  0
   33.9476    9.7000    0.0000 C   0  0  0  0  0  0  0  0  0  0  0  0
   34.6620    9.2875    0.0000 C   0  0  0  0  0  0  0  0  0  0  0  0
   35.3765    9.7000    0.0000 C   0  0  0  0  0  0  0  0  0  0  0  0
  1  2  1  0  0  0  0
  2  3  1  0  0  0  0
  3  4  1  0  0  0  0
  4  5  1  0  0  0  0
  5  6  1  0  0  0  0
  6  7  1  0  0  0  0
  7  8  1  0  0  0  0
  8  9  1  0  0  0  0
  9 10  1  0  0  0  0
 10 11  1  0  0  0  0
 11 12  1  0  0  0  0
 12 13  1  0  0  0  0
 13 14  1  0  0  0  0
 14 15  1  0  0  0  0
  1 16  1  0  0  0  0
 16 17  1  0  0  0  0
 17 18  1  0  0  0  0
 18 19  1  0  0  0  0
 19 20  1  0  0  0  0
 20 21  1  0  0  0  0
 21 22  1  0  0  0  0
 22 23  1  0  0  0  0
 23 24  1  0  0  0  0
 24 25  1  0  0  0  0
 25 26  1  0  0  0  0
 26 27  1  0  0  0  0
 27 28  1  0  0  0  0
 28 29  1  0  0  0  0
 29 30  1  0  0  0  0
M  END
> <ChemID>
100912

> <CAS>
638-68-6

> <Original_SMILES>
CCCCCCCCCCCCCCCCCCCCCCCCCCCCCC

> <preferred_name>
Triacontane

> <dsstox_substance_id>
DTXSID0060935

> <dsstox_compound_id>
DTXCID9044110

> <qc_level>
Public_High

> <Canonical_QSARr>
CCCCCCCCCCCCCCCCCCCCCCCCCCCCCC

> <InChI_Code_QSARr>
InChI=1S/C30H62/c1-3-5-7-9-11-13-15-17-19-21-23-25-27-29-30-28-26-24-22-20-18-16-14-12-10-8-6-4-2/h3-30H2,1-2H3

> <InChI Key_QSARr>
JXTPJDDICSTXJX-UHFFFAOYSA-N

> <Salt_Solvent>


> <Salt_Solvent_ID>
0

> <MPID>
100913

> <Tr_1_Tst_0>
1

> <Ready_Biodeg>
1.0

$$$$
Row885
  Mrv171c012251911052D          

  9  9  0  0  0  0            999 V2000
    1.4604    0.2930    0.0000 P   0  0  0  0  0  0  0  0  0  0  0  0
    1.4604   -0.5320    0.0000 C   0  0  0  0  0  0  0  0  0  0  0  0
    0.7459   -0.9445    0.0000 C   0  0  0  0  0  0  0  0  0  0  0  0
    0.7459   -1.7695    0.0000 C   0  0  0  0  0  0  0  0  0  0  0  0
    1.4604   -2.1820    0.0000 C   0  0  0  0  0  0  0  0  0  0  0  0
    2.1749   -1.7695    0.0000 C   0  0  0  0  0  0  0  0  0  0  0  0
    2.1749   -0.9445    0.0000 C   0  0  0  0  0  0  0  0  0  0  0  0
    0.7459    0.7055    0.0000 Cl  0  0  0  0  0  0  0  0  0  0  0  0
    2.1749    0.7055    0.0000 Cl  0  0  0  0  0  0  0  0  0  0  0  0
  1  2  1  0  0  0  0
  3  2  1  0  0  0  0
  4  3  2  0  0  0  0
  5  4  1  0  0  0  0
  6  5  2  0  0  0  0
  7  6  1  0  0  0  0
  2  7  2  0  0  0  0
  1  8  1  0  0  0  0
  1  9  1  0  0  0  0
M  END
> <ChemID>
100913

> <CAS>
644-97-3

> <Original_SMILES>
ClP(Cl)c1ccccc1

> <preferred_name>
Phenyl phosphorus dichloride

> <dsstox_substance_id>
DTXSID4027282

> <dsstox_compound_id>
DTXCID307282

> <qc_level>
DSSTox_Low

> <Canonical_QSARr>
ClP(Cl)C1C=CC=CC=1

> <InChI_Code_QSARr>
InChI=1S/C6H5Cl2P/c7-9(8)6-4-2-1-3-5-6/h1-5H

> <InChI Key_QSARr>
IMDXZWRLUZPMDH-UHFFFAOYSA-N

> <Salt_Solvent>


> <Salt_Solvent_ID>
0

> <MPID>
100914

> <Tr_1_Tst_0>
0

> <Ready_Biodeg>
0.0

$$$$
Row886
  Mrv171c012251911052D          

  9  8  0  0  0  0            999 V2000
    2.4750    1.4289    0.0000 C   0  0  0  0  0  0  0  0  0  0  0  0
    2.0625    0.7145    0.0000 C   0  0  0  0  0  0  0  0  0  0  0  0
    1.2375    0.7145    0.0000 C   0  0  0  0  0  0  0  0  0  0  0  0
    0.8250    0.0000    0.0000 C   0  0  0  0  0  0  0  0  0  0  0  0
    0.0000    0.0000    0.0000 C   0  0  0  0  0  0  0  0  0  0  0  0
   -0.4125   -0.7145    0.0000 C   0  0  0  0  0  0  0  0  0  0  0  0
    0.0000   -1.4289    0.0000 C   0  0  0  0  0  0  0  0  0  0  0  0
   -0.4125    0.7145    0.0000 C   0  0  0  0  0  0  0  0  0  0  0  0
   -1.2375    0.7145    0.0000 O   0  0  0  0  0  0  0  0  0  0  0  0
  1  2  1  0  0  0  0
  2  3  1  0  0  0  0
  4  3  1  4  0  0  0
  4  5  2  0  0  0  0
  5  6  1  0  0  0  0
  6  7  1  0  0  0  0
  5  8  1  0  0  0  0
  8  9  2  0  0  0  0
M  END
> <ChemID>
100914

> <CAS>
645-62-5

> <Original_SMILES>
CCCC=C(CC)C=O

> <preferred_name>
2-Ethyl-2-hexenal

> <dsstox_substance_id>
DTXSID4025296

> <dsstox_compound_id>
DTXCID605295

> <qc_level>
DSSTox_Low

> <Canonical_QSARr>
CCCC=C(CC)C=O

> <InChI_Code_QSARr>
InChI=1S/C8H14O/c1-3-5-6-8(4-2)7-9/h6-7H,3-5H2,1-2H3

> <InChI Key_QSARr>
PYLMCYQHBRSDND-UHFFFAOYSA-N

> <Salt_Solvent>


> <Salt_Solvent_ID>
0

> <MPID>
100915

> <Tr_1_Tst_0>
1

> <Ready_Biodeg>
1.0

$$$$
Row887
  Mrv171c012251911052D          

 24 23  0  0  0  0            999 V2000
   18.8072    7.5580    0.0000 C   0  0  0  0  0  0  0  0  0  0  0  0
   18.0927    7.1455    0.0000 C   0  0  0  0  0  0  0  0  0  0  0  0
   17.3782    7.5580    0.0000 C   0  0  0  0  0  0  0  0  0  0  0  0
   16.6638    7.1455    0.0000 C   0  0  0  0  0  0  0  0  0  0  0  0
   15.9493    7.5580    0.0000 C   0  0  0  0  0  0  0  0  0  0  0  0
   15.2348    7.1455    0.0000 C   0  0  0  0  0  0  0  0  0  0  0  0
   14.5203    7.5580    0.0000 C   0  0  0  0  0  0  0  0  0  0  0  0
   13.8059    7.1455    0.0000 C   0  0  0  0  0  0  0  0  0  0  0  0
   13.0914    7.5580    0.0000 C   0  0  0  0  0  0  0  0  0  0  0  0
   12.3769    7.1455    0.0000 C   0  0  0  0  0  0  0  0  0  0  0  0
   11.6625    7.5580    0.0000 C   0  0  0  0  0  0  0  0  0  0  0  0
   10.9480    7.1455    0.0000 C   0  0  0  0  0  0  0  0  0  0  0  0
   19.5216    7.1455    0.0000 C   0  0  0  0  0  0  0  0  0  0  0  0
   20.2361    7.5580    0.0000 C   0  0  0  0  0  0  0  0  0  0  0  0
   20.9506    7.1455    0.0000 C   0  0  0  0  0  0  0  0  0  0  0  0
   21.6650    7.5580    0.0000 C   0  0  0  0  0  0  0  0  0  0  0  0
   22.3795    7.1455    0.0000 C   0  0  0  0  0  0  0  0  0  0  0  0
   23.0940    7.5580    0.0000 C   0  0  0  0  0  0  0  0  0  0  0  0
   23.8085    7.1455    0.0000 C   0  0  0  0  0  0  0  0  0  0  0  0
   24.5229    7.5580    0.0000 C   0  0  0  0  0  0  0  0  0  0  0  0
   25.2374    7.1455    0.0000 C   0  0  0  0  0  0  0  0  0  0  0  0
   25.9519    7.5580    0.0000 C   0  0  0  0  0  0  0  0  0  0  0  0
   26.6663    7.1455    0.0000 C   0  0  0  0  0  0  0  0  0  0  0  0
   27.3808    7.5580    0.0000 C   0  0  0  0  0  0  0  0  0  0  0  0
  1  2  1  0  0  0  0
  2  3  1  0  0  0  0
  3  4  1  0  0  0  0
  4  5  1  0  0  0  0
  5  6  1  0  0  0  0
  6  7  1  0  0  0  0
  7  8  1  0  0  0  0
  8  9  1  0  0  0  0
  9 10  1  0  0  0  0
 10 11  1  0  0  0  0
 11 12  1  0  0  0  0
  1 13  1  0  0  0  0
 13 14  1  0  0  0  0
 14 15  1  0  0  0  0
 15 16  1  0  0  0  0
 16 17  1  0  0  0  0
 17 18  1  0  0  0  0
 18 19  1  0  0  0  0
 19 20  1  0  0  0  0
 20 21  1  0  0  0  0
 21 22  1  0  0  0  0
 22 23  1  0  0  0  0
 23 24  1  0  0  0  0
M  END
> <ChemID>
100915

> <CAS>
646-31-1

> <Original_SMILES>
CCCCCCCCCCCCCCCCCCCCCCCC

> <preferred_name>
Tetracosane

> <dsstox_substance_id>
DTXSID8060955

> <dsstox_compound_id>
DTXCID7044346

> <qc_level>
Public_High

> <Canonical_QSARr>
CCCCCCCCCCCCCCCCCCCCCCCC

> <InChI_Code_QSARr>
InChI=1S/C24H50/c1-3-5-7-9-11-13-15-17-19-21-23-24-22-20-18-16-14-12-10-8-6-4-2/h3-24H2,1-2H3

> <InChI Key_QSARr>
POOSGDOYLQNASK-UHFFFAOYSA-N

> <Salt_Solvent>


> <Salt_Solvent_ID>
0

> <MPID>
100916

> <Tr_1_Tst_0>
1

> <Ready_Biodeg>
1.0

$$$$
Row888
  Mrv171c012251911052D          

  6  6  0  0  0  0            999 V2000
    1.5845   -0.9995    0.0000 O   0  0  0  0  0  0  0  0  0  0  0  0
    1.0012   -0.4161    0.0000 C   0  0  0  0  0  0  0  0  0  0  0  0
    1.0012    0.4089    0.0000 C   0  0  0  0  0  0  0  0  0  0  0  0
    0.4178   -0.9995    0.0000 C   0  0  0  0  0  0  0  0  0  0  0  0
    1.0012   -1.5828    0.0000 C   0  0  0  0  0  0  0  0  0  0  0  0
    1.0012   -2.4078    0.0000 O   0  0  0  0  0  0  0  0  0  0  0  0
  2  1  1  0  0  0  0
  2  3  2  0  0  0  0
  4  2  1  0  0  0  0
  5  4  1  0  0  0  0
  1  5  1  0  0  0  0
  5  6  2  0  0  0  0
M  END
> <ChemID>
100916

> <CAS>
674-82-8

> <Original_SMILES>
C=C1CC(=O)O1

> <preferred_name>
Diketene

> <dsstox_substance_id>
DTXSID9027289

> <dsstox_compound_id>
DTXCID107289

> <qc_level>
DSSTox_Low

> <Canonical_QSARr>
C=C1CC(=O)O1

> <InChI_Code_QSARr>
InChI=1S/C4H4O2/c1-3-2-4(5)6-3/h1-2H2

> <InChI Key_QSARr>
WASQWSOJHCZDFK-UHFFFAOYSA-N

> <Salt_Solvent>


> <Salt_Solvent_ID>
0

> <MPID>
100917

> <Tr_1_Tst_0>
1

> <Ready_Biodeg>
1.0

$$$$
Row889
  Mrv171c012251911052D          

 11 10  0  0  0  0            999 V2000
    1.1648   -1.4307    0.0000 P   0  0  0  0  0  0  0  0  0  0  0  0
    1.5773   -2.1452    0.0000 O   0  0  0  0  0  0  0  0  0  0  0  0
    1.8793   -1.0182    0.0000 N   0  0  0  0  0  0  0  0  0  0  0  0
    1.8793   -0.1932    0.0000 C   0  0  0  0  0  0  0  0  0  0  0  0
    2.5938   -1.4307    0.0000 C   0  0  0  0  0  0  0  0  0  0  0  0
    0.4504   -1.8432    0.0000 N   0  0  0  0  0  0  0  0  0  0  0  0
    0.4504   -2.6682    0.0000 C   0  0  0  0  0  0  0  0  0  0  0  0
   -0.2641   -1.4307    0.0000 C   0  0  0  0  0  0  0  0  0  0  0  0
    0.7523   -0.7163    0.0000 N   0  0  0  0  0  0  0  0  0  0  0  0
    1.1648   -0.0018    0.0000 C   0  0  0  0  0  0  0  0  0  0  0  0
   -0.0727   -0.7163    0.0000 C   0  0  0  0  0  0  0  0  0  0  0  0
  1  2  2  0  0  0  0
  1  3  1  0  0  0  0
  3  4  1  0  0  0  0
  3  5  1  0  0  0  0
  1  6  1  0  0  0  0
  6  7  1  0  0  0  0
  6  8  1  0  0  0  0
  1  9  1  0  0  0  0
  9 10  1  0  0  0  0
  9 11  1  0  0  0  0
M  END
> <ChemID>
100917

> <CAS>
680-31-9

> <Original_SMILES>
CN(C)P(=O)(N(C)C)N(C)C

> <preferred_name>
Hexamethylphosphoramide

> <dsstox_substance_id>
DTXSID6020694

> <dsstox_compound_id>
DTXCID60694

> <qc_level>
DSSTox_High

> <Canonical_QSARr>
CN(C)P(=O)(N(C)C)N(C)C

> <InChI_Code_QSARr>
InChI=1S/C6H18N3OP/c1-7(2)11(10,8(3)4)9(5)6/h1-6H3

> <InChI Key_QSARr>
GNOIPBMMFNIUFM-UHFFFAOYSA-N

> <Salt_Solvent>


> <Salt_Solvent_ID>
0

> <MPID>
100918

> <Tr_1_Tst_0>
0

> <Ready_Biodeg>
0.0

$$$$
Row890
  Mrv171c012251911052D          

 47 46  0  0  0  0            999 V2000
    5.4423   -6.4357    0.0000 C   0  0  0  0  0  0  0  0  0  0  0  0
    5.4423   -7.2607    0.0000 O   0  0  0  0  0  0  0  0  0  0  0  0
    4.7278   -6.0232    0.0000 O   0  0  0  0  0  0  0  0  0  0  0  0
    4.0133   -6.4357    0.0000 C   0  0  0  0  0  0  0  0  0  0  0  0
    3.2988   -6.0232    0.0000 C   0  0  0  0  0  0  0  0  0  0  0  0
    2.5844   -6.4357    0.0000 C   0  0  0  0  0  0  0  0  0  0  0  0
    1.8699   -6.0232    0.0000 C   0  0  0  0  0  0  0  0  0  0  0  0
    1.1554   -6.4357    0.0000 C   0  0  0  0  0  0  0  0  0  0  0  0
    0.4410   -6.0232    0.0000 C   0  0  0  0  0  0  0  0  0  0  0  0
   -0.2735   -6.4357    0.0000 C   0  0  0  0  0  0  0  0  0  0  0  0
   -0.9880   -6.0232    0.0000 C   0  0  0  0  0  0  0  0  0  0  0  0
   -1.7024   -6.4357    0.0000 C   0  0  0  0  0  0  0  0  0  0  0  0
   -2.4169   -6.0232    0.0000 C   0  0  0  0  0  0  0  0  0  0  0  0
   -3.1314   -6.4357    0.0000 C   0  0  0  0  0  0  0  0  0  0  0  0
   -3.8459   -6.0232    0.0000 C   0  0  0  0  0  0  0  0  0  0  0  0
   -4.5603   -6.4357    0.0000 C   0  0  0  0  0  0  0  0  0  0  0  0
   -5.2748   -6.0232    0.0000 C   0  0  0  0  0  0  0  0  0  0  0  0
   -5.9893   -6.4357    0.0000 C   0  0  0  0  0  0  0  0  0  0  0  0
   -6.7037   -6.0232    0.0000 C   0  0  0  0  0  0  0  0  0  0  0  0
   -7.4182   -6.4357    0.0000 C   0  0  0  0  0  0  0  0  0  0  0  0
   -8.1327   -6.0232    0.0000 C   0  0  0  0  0  0  0  0  0  0  0  0
    6.1567   -6.0232    0.0000 C   0  0  0  0  0  0  0  0  0  0  0  0
    6.8712   -6.4357    0.0000 C   0  0  0  0  0  0  0  0  0  0  0  0
    7.5857   -6.0232    0.0000 S   0  0  0  0  0  0  0  0  0  0  0  0
    8.3001   -6.4357    0.0000 C   0  0  0  0  0  0  0  0  0  0  0  0
    9.0146   -6.0232    0.0000 C   0  0  0  0  0  0  0  0  0  0  0  0
    9.7291   -6.4357    0.0000 C   0  0  0  0  0  0  0  0  0  0  0  0
    9.7291   -7.2607    0.0000 O   0  0  0  0  0  0  0  0  0  0  0  0
   10.4436   -6.0232    0.0000 O   0  0  0  0  0  0  0  0  0  0  0  0
   11.1580   -6.4357    0.0000 C   0  0  0  0  0  0  0  0  0  0  0  0
   11.8725   -6.0232    0.0000 C   0  0  0  0  0  0  0  0  0  0  0  0
   12.5870   -6.4357    0.0000 C   0  0  0  0  0  0  0  0  0  0  0  0
   13.3014   -6.0232    0.0000 C   0  0  0  0  0  0  0  0  0  0  0  0
   14.0159   -6.4357    0.0000 C   0  0  0  0  0  0  0  0  0  0  0  0
   14.7304   -6.0232    0.0000 C   0  0  0  0  0  0  0  0  0  0  0  0
   15.4449   -6.4357    0.0000 C   0  0  0  0  0  0  0  0  0  0  0  0
   16.1593   -6.0232    0.0000 C   0  0  0  0  0  0  0  0  0  0  0  0
   16.8738   -6.4357    0.0000 C   0  0  0  0  0  0  0  0  0  0  0  0
   17.5883   -6.0232    0.0000 C   0  0  0  0  0  0  0  0  0  0  0  0
   18.3027   -6.4357    0.0000 C   0  0  0  0  0  0  0  0  0  0  0  0
   19.0172   -6.0232    0.0000 C   0  0  0  0  0  0  0  0  0  0  0  0
   19.7317   -6.4357    0.0000 C   0  0  0  0  0  0  0  0  0  0  0  0
   20.4462   -6.0232    0.0000 C   0  0  0  0  0  0  0  0  0  0  0  0
   21.1606   -6.4357    0.0000 C   0  0  0  0  0  0  0  0  0  0  0  0
   21.8751   -6.0232    0.0000 C   0  0  0  0  0  0  0  0  0  0  0  0
   22.5896   -6.4357    0.0000 C   0  0  0  0  0  0  0  0  0  0  0  0
   23.3040   -6.0232    0.0000 C   0  0  0  0  0  0  0  0  0  0  0  0
  1  2  2  0  0  0  0
  1  3  1  0  0  0  0
  3  4  1  0  0  0  0
  4  5  1  0  0  0  0
  5  6  1  0  0  0  0
  6  7  1  0  0  0  0
  7  8  1  0  0  0  0
  8  9  1  0  0  0  0
  9 10  1  0  0  0  0
 10 11  1  0  0  0  0
 11 12  1  0  0  0  0
 12 13  1  0  0  0  0
 13 14  1  0  0  0  0
 14 15  1  0  0  0  0
 15 16  1  0  0  0  0
 16 17  1  0  0  0  0
 17 18  1  0  0  0  0
 18 19  1  0  0  0  0
 19 20  1  0  0  0  0
 20 21  1  0  0  0  0
  1 22  1  0  0  0  0
 22 23  1  0  0  0  0
 23 24  1  0  0  0  0
 24 25  1  0  0  0  0
 25 26  1  0  0  0  0
 26 27  1  0  0  0  0
 27 28  2  0  0  0  0
 27 29  1  0  0  0  0
 29 30  1  0  0  0  0
 30 31  1  0  0  0  0
 31 32  1  0  0  0  0
 32 33  1  0  0  0  0
 33 34  1  0  0  0  0
 34 35  1  0  0  0  0
 35 36  1  0  0  0  0
 36 37  1  0  0  0  0
 37 38  1  0  0  0  0
 38 39  1  0  0  0  0
 39 40  1  0  0  0  0
 40 41  1  0  0  0  0
 41 42  1  0  0  0  0
 42 43  1  0  0  0  0
 43 44  1  0  0  0  0
 44 45  1  0  0  0  0
 45 46  1  0  0  0  0
 46 47  1  0  0  0  0
M  END
> <ChemID>
100918

> <CAS>
693-36-7

> <Original_SMILES>
CCCCCCCCCCCCCCCCCCOC(=O)CCSCCC(=O)OCCCCCCCCCCCCCCCCCC

> <preferred_name>
Distearyl thiodipropionate

> <dsstox_substance_id>
DTXSID3027299

> <dsstox_compound_id>
DTXCID407299

> <qc_level>
DSSTox_Low

> <Canonical_QSARr>
CCCCCCCCCCCCCCCCCCOC(=O)CCSCCC(=O)OCCCCCCCCCCCCCCCCCC

> <InChI_Code_QSARr>
InChI=1S/C42H82O4S/c1-3-5-7-9-11-13-15-17-19-21-23-25-27-29-31-33-37-45-41(43)35-39-47-40-36-42(44)46-38-34-32-30-28-26-24-22-20-18-16-14-12-10-8-6-4-2/h3-40H2,1-2H3

> <InChI Key_QSARr>
PWWSSIYVTQUJQQ-UHFFFAOYSA-N

> <Salt_Solvent>


> <Salt_Solvent_ID>
0

> <MPID>
100919

> <Tr_1_Tst_0>
1

> <Ready_Biodeg>
1.0

$$$$
Row891
  Mrv171c012251911052D          

 11 10  0  0  0  0            999 V2000
    0.1967   -1.3898    0.0000 C   0  0  0  0  0  0  0  0  0  0  0  0
    0.9112   -0.9773    0.0000 C   0  0  0  0  0  0  0  0  0  0  0  0
    1.6257   -1.3898    0.0000 C   0  0  0  0  0  0  0  0  0  0  0  0
    2.3401   -0.9773    0.0000 C   0  0  0  0  0  0  0  0  0  0  0  0
    3.0546   -1.3898    0.0000 C   0  0  0  0  0  0  0  0  0  0  0  0
    3.7691   -0.9773    0.0000 C   0  0  0  0  0  0  0  0  0  0  0  0
    4.4836   -1.3898    0.0000 C   0  0  0  0  0  0  0  0  0  0  0  0
    5.1980   -0.9773    0.0000 C   0  0  0  0  0  0  0  0  0  0  0  0
    5.9125   -1.3898    0.0000 C   0  0  0  0  0  0  0  0  0  0  0  0
    6.6270   -0.9773    0.0000 C   0  0  0  0  0  0  0  0  0  0  0  0
    0.9112   -0.1523    0.0000 O   0  0  0  0  0  0  0  0  0  0  0  0
  1  2  1  0  0  0  0
  2  3  1  0  0  0  0
  3  4  1  0  0  0  0
  4  5  1  0  0  0  0
  5  6  1  0  0  0  0
  6  7  1  0  0  0  0
  7  8  1  0  0  0  0
  8  9  1  0  0  0  0
  9 10  1  0  0  0  0
  2 11  2  0  0  0  0
M  END
> <ChemID>
100919

> <CAS>
693-54-9

> <Original_SMILES>
CCCCCCCCC(C)=O

> <preferred_name>
2-Decanone

> <dsstox_substance_id>
DTXSID9022104

> <dsstox_compound_id>
DTXCID002104

> <qc_level>
DSSTox_Low

> <Canonical_QSARr>
CCCCCCCCC(C)=O

> <InChI_Code_QSARr>
InChI=1S/C10H20O/c1-3-4-5-6-7-8-9-10(2)11/h3-9H2,1-2H3

> <InChI Key_QSARr>
ZAJNGDIORYACQU-UHFFFAOYSA-N

> <Salt_Solvent>


> <Salt_Solvent_ID>
0

> <MPID>
100920

> <Tr_1_Tst_0>
1

> <Ready_Biodeg>
1.0

$$$$
Row892
  Mrv171c012251911052D          

  9  9  0  0  0  0            999 V2000
    1.5877   -0.0000    0.0000 N   0  0  0  0  0  0  0  0  0  0  0  0
    1.5877   -0.8250    0.0000 C   0  0  0  0  0  0  0  0  0  0  0  0
    0.8732    0.4125    0.0000 C   0  0  0  0  0  0  0  0  0  0  0  0
    0.8732    1.2375    0.0000 C   0  0  0  0  0  0  0  0  0  0  0  0
    0.1588    1.6500    0.0000 C   0  0  0  0  0  0  0  0  0  0  0  0
    0.1588    2.4750    0.0000 C   0  0  0  0  0  0  0  0  0  0  0  0
   -0.5557    1.2375    0.0000 C   0  0  0  0  0  0  0  0  0  0  0  0
   -0.5557    0.4125    0.0000 C   0  0  0  0  0  0  0  0  0  0  0  0
    0.1588   -0.0000    0.0000 C   0  0  0  0  0  0  0  0  0  0  0  0
  1  2  1  0  0  0  0
  1  3  1  0  0  0  0
  4  3  1  0  0  0  0
  5  4  2  0  0  0  0
  5  6  1  0  0  0  0
  7  5  1  0  0  0  0
  8  7  2  0  0  0  0
  9  8  1  0  0  0  0
  3  9  2  0  0  0  0
M  END
> <ChemID>
100921

> <CAS>
696-44-6

> <Original_SMILES>
Cc1cccc(c1)NC

> <preferred_name>
Benzenamine, N,3-dimethyl-

> <dsstox_substance_id>
DTXSID2061014

> <dsstox_compound_id>
DTXCID8046531

> <qc_level>
Public_High

> <Canonical_QSARr>
CC1C=CC=C(C=1)NC

> <InChI_Code_QSARr>
InChI=1S/C8H11N/c1-7-4-3-5-8(6-7)9-2/h3-6,9H,1-2H3

> <InChI Key_QSARr>
FBGJJTQNZVNEQU-UHFFFAOYSA-N

> <Salt_Solvent>


> <Salt_Solvent_ID>
0

> <MPID>
100921

> <Tr_1_Tst_0>
1

> <Ready_Biodeg>
0.0

$$$$
Row893
  Mrv171c012251911052D          

 10 10  0  0  0  0            999 V2000
    4.2987    0.4569    0.0000 O   0  0  0  0  0  0  0  0  0  0  0  0
    3.6313    0.9418    0.0000 C   0  0  0  0  0  0  0  0  0  0  0  0
    3.6313    1.7668    0.0000 C   0  0  0  0  0  0  0  0  0  0  0  0
    2.9168    2.1793    0.0000 O   0  0  0  0  0  0  0  0  0  0  0  0
    2.9638    0.4569    0.0000 C   0  0  0  0  0  0  0  0  0  0  0  0
    3.2188   -0.3277    0.0000 C   0  0  0  0  0  0  0  0  0  0  0  0
    4.0438   -0.3277    0.0000 C   0  0  0  0  0  0  0  0  0  0  0  0
    4.5287   -0.9952    0.0000 N   0  3  0  0  0  0  0  0  0  0  0  0
    5.3492   -0.9089    0.0000 O   0  0  0  0  0  0  0  0  0  0  0  0
    4.1931   -1.7488    0.0000 O   0  5  0  0  0  0  0  0  0  0  0  0
  2  1  1  0  0  0  0
  2  3  1  0  0  0  0
  3  4  2  0  0  0  0
  5  2  2  0  0  0  0
  6  5  1  0  0  0  0
  7  6  2  0  0  0  0
  1  7  1  0  0  0  0
  7  8  1  0  0  0  0
  8  9  2  0  0  0  0
  8 10  1  0  0  0  0
M  CHG  2   8   1  10  -1
M  END
> <ChemID>
100922

> <CAS>
698-63-5

> <Original_SMILES>
[O-][N+](=O)c1ccc(C=O)o1

> <preferred_name>
5-Nitro-2-furaldehyde

> <dsstox_substance_id>
DTXSID30220097

> <dsstox_compound_id>
DTXCID30142588

> <qc_level>
Public_Medium

> <Canonical_QSARr>
[O-][N+](=O)C1=CC=C(C=O)O1

> <InChI_Code_QSARr>
InChI=1S/C5H3NO4/c7-3-4-1-2-5(10-4)6(8)9/h1-3H

> <InChI Key_QSARr>
SXINBFXPADXIEY-UHFFFAOYSA-N

> <Salt_Solvent>


> <Salt_Solvent_ID>
0

> <MPID>
100922

> <Tr_1_Tst_0>
0

> <Ready_Biodeg>
1.0

$$$$
Row894
  Mrv171c012251911052D          

 11 11  0  0  0  0            999 V2000
    4.6911   -0.1312    0.0000 O   0  0  0  0  0  0  0  0  0  0  0  0
    3.9766    0.2813    0.0000 C   0  0  0  0  0  0  0  0  0  0  0  0
    3.9766    1.1063    0.0000 C   0  0  0  0  0  0  0  0  0  0  0  0
    3.2621    1.5188    0.0000 C   0  0  0  0  0  0  0  0  0  0  0  0
    3.2621    2.3438    0.0000 C   0  0  0  0  0  0  0  0  0  0  0  0
    2.5477    1.1063    0.0000 C   0  0  0  0  0  0  0  0  0  0  0  0
    2.5477    0.2813    0.0000 C   0  0  0  0  0  0  0  0  0  0  0  0
    3.2621   -0.1312    0.0000 C   0  0  0  0  0  0  0  0  0  0  0  0
    3.2621   -0.9562    0.0000 N   0  3  0  0  0  0  0  0  0  0  0  0
    3.9766   -1.3687    0.0000 O   0  0  0  0  0  0  0  0  0  0  0  0
    2.5477   -1.3687    0.0000 O   0  5  0  0  0  0  0  0  0  0  0  0
  1  2  1  0  0  0  0
  3  2  1  0  0  0  0
  4  3  2  0  0  0  0
  4  5  1  0  0  0  0
  6  4  1  0  0  0  0
  7  6  2  0  0  0  0
  8  7  1  0  0  0  0
  2  8  2  0  0  0  0
  8  9  1  0  0  0  0
  9 10  2  0  0  0  0
  9 11  1  0  0  0  0
M  CHG  2   9   1  11  -1
M  END
> <ChemID>
100923

> <CAS>
700-38-9

> <Original_SMILES>
Cc1ccc(c(O)c1)[N+]([O-])=O

> <preferred_name>
6-Nitro-m-cresol

> <dsstox_substance_id>
DTXSID00220261

> <dsstox_compound_id>
DTXCID00142752

> <qc_level>
Public_Medium

> <Canonical_QSARr>
CC1C=CC(=C(O)C=1)[N+]([O-])=O

> <InChI_Code_QSARr>
InChI=1S/C7H7NO3/c1-5-2-3-6(8(10)11)7(9)4-5/h2-4,9H,1H3

> <InChI Key_QSARr>
NQXUSSVLFOBRSE-UHFFFAOYSA-N

> <Salt_Solvent>


> <Salt_Solvent_ID>
0

> <MPID>
100923

> <Tr_1_Tst_0>
1

> <Ready_Biodeg>
0.0

$$$$
Row895
  Mrv171c012251911052D          

 13 14  0  0  0  0            999 V2000
    0.1649   -1.1106    0.0000 C   0  0  0  0  0  0  0  0  0  0  0  0
   -0.5496   -0.6981    0.0000 C   0  0  0  0  0  0  0  0  0  0  0  0
   -1.2641   -1.1106    0.0000 C   0  0  0  0  0  0  0  0  0  0  0  0
   -1.2641   -1.9356    0.0000 C   0  0  0  0  0  0  0  0  0  0  0  0
   -0.5496   -2.3481    0.0000 C   0  0  0  0  0  0  0  0  0  0  0  0
    0.1649   -1.9356    0.0000 C   0  0  0  0  0  0  0  0  0  0  0  0
    0.8793   -2.3481    0.0000 C   0  0  0  0  0  0  0  0  0  0  0  0
    1.5938   -1.9356    0.0000 C   0  0  0  0  0  0  0  0  0  0  0  0
    1.5938   -1.1106    0.0000 C   0  0  0  0  0  0  0  0  0  0  0  0
    2.3083   -0.6981    0.0000 O   0  0  0  0  0  0  0  0  0  0  0  0
    0.8793   -0.6981    0.0000 C   0  0  0  0  0  0  0  0  0  0  0  0
    0.8793    0.1269    0.0000 C   0  0  0  0  0  0  0  0  0  0  0  0
    0.1649    0.5394    0.0000 O   0  0  0  0  0  0  0  0  0  0  0  0
  2  1  1  0  0  0  0
  3  2  2  0  0  0  0
  4  3  1  0  0  0  0
  5  4  2  0  0  0  0
  6  5  1  0  0  0  0
  6  1  1  0  0  0  0
  7  6  2  0  0  0  0
  8  7  1  0  0  0  0
  9  8  2  0  0  0  0
  9 10  1  0  0  0  0
 11  9  1  0  0  0  0
  1 11  2  0  0  0  0
 11 12  1  0  0  0  0
 12 13  2  0  0  0  0
M  END
> <ChemID>
100924

> <CAS>
708-06-5

> <Original_SMILES>
Oc1ccc2ccccc2c1C=O

> <preferred_name>
1-Naphthalenecarboxaldehyde, 2-hydroxy-

> <dsstox_substance_id>
DTXSID9061041

> <dsstox_compound_id>
DTXCID4046812

> <qc_level>
Public_High

> <Canonical_QSARr>
OC1=CC=C2C=CC=CC2=C1C=O

> <InChI_Code_QSARr>
InChI=1S/C11H8O2/c12-7-10-9-4-2-1-3-8(9)5-6-11(10)13/h1-7,13H

> <InChI Key_QSARr>
NTCCNERMXRIPTR-UHFFFAOYSA-N

> <Salt_Solvent>


> <Salt_Solvent_ID>
0

> <MPID>
100924

> <Tr_1_Tst_0>
1

> <Ready_Biodeg>
1.0

$$$$
Row896
  Mrv171c012251911052D          

 13 13  0  0  0  0            999 V2000
    3.0246   -1.3646    0.0000 C   0  0  0  0  0  0  0  0  0  0  0  0
    2.3101   -0.9521    0.0000 C   0  0  0  0  0  0  0  0  0  0  0  0
    2.3101   -0.1271    0.0000 N   0  0  0  0  0  0  0  0  0  0  0  0
    1.5957    0.2854    0.0000 C   0  0  0  0  0  0  0  0  0  0  0  0
    1.5957    1.1104    0.0000 C   0  0  0  0  0  0  0  0  0  0  0  0
    0.8812    1.5229    0.0000 C   0  0  0  0  0  0  0  0  0  0  0  0
    0.8812   -0.1271    0.0000 O   0  0  0  0  0  0  0  0  0  0  0  0
    1.5957   -1.3646    0.0000 C   0  0  0  0  0  0  0  0  0  0  0  0
    1.5957   -2.1896    0.0000 C   0  0  0  0  0  0  0  0  0  0  0  0
    2.3101   -2.6021    0.0000 C   0  0  0  0  0  0  0  0  0  0  0  0
    2.3101   -3.4271    0.0000 Cl  0  0  0  0  0  0  0  0  0  0  0  0
    3.0246   -2.1896    0.0000 C   0  0  0  0  0  0  0  0  0  0  0  0
    3.7391   -2.6021    0.0000 Cl  0  0  0  0  0  0  0  0  0  0  0  0
  2  1  1  0  0  0  0
  2  3  1  0  0  0  0
  3  4  1  0  0  0  0
  4  5  1  0  0  0  0
  5  6  1  0  0  0  0
  4  7  2  0  0  0  0
  8  2  2  0  0  0  0
  9  8  1  0  0  0  0
 10  9  2  0  0  0  0
 10 11  1  0  0  0  0
 12 10  1  0  0  0  0
  1 12  2  0  0  0  0
 12 13  1  0  0  0  0
M  END
> <ChemID>
100925

> <CAS>
709-98-8

> <Original_SMILES>
CCC(=O)Nc1cc(Cl)c(Cl)cc1

> <preferred_name>
Propanil

> <dsstox_substance_id>
DTXSID8022111

> <dsstox_compound_id>
DTXCID102111

> <qc_level>
DSSTox_Low

> <Canonical_QSARr>
CCC(=O)NC1C=C(Cl)C(Cl)=CC=1

> <InChI_Code_QSARr>
InChI=1S/C9H9Cl2NO/c1-2-9(13)12-6-3-4-7(10)8(11)5-6/h3-5H,2H2,1H3,(H,12,13)

> <InChI Key_QSARr>
LFULEKSKNZEWOE-UHFFFAOYSA-N

> <Salt_Solvent>


> <Salt_Solvent_ID>
0

> <MPID>
100925

> <Tr_1_Tst_0>
1

> <Ready_Biodeg>
1.0

$$$$
Row897
  Mrv171c012251911052D          

 19 19  0  0  0  0            999 V2000
    3.7829   -1.4350    0.0000 O   0  0  0  0  0  0  0  0  0  0  0  0
    3.0684   -1.8475    0.0000 C   0  0  0  0  0  0  0  0  0  0  0  0
    2.3539   -1.4350    0.0000 C   0  0  0  0  0  0  0  0  0  0  0  0
    2.3539   -0.6100    0.0000 C   0  0  0  0  0  0  0  0  0  0  0  0
    2.3539    0.2150    0.0000 C   0  0  0  0  0  0  0  0  0  0  0  0
    1.5289   -0.6100    0.0000 C   0  0  0  0  0  0  0  0  0  0  0  0
    3.1789   -0.6100    0.0000 C   0  0  0  0  0  0  0  0  0  0  0  0
    1.6394   -1.8475    0.0000 C   0  0  0  0  0  0  0  0  0  0  0  0
    1.6394   -2.6725    0.0000 C   0  0  0  0  0  0  0  0  0  0  0  0
    0.9250   -3.0850    0.0000 C   0  0  0  0  0  0  0  0  0  0  0  0
    0.2105   -3.4975    0.0000 C   0  0  0  0  0  0  0  0  0  0  0  0
    0.5125   -2.3705    0.0000 C   0  0  0  0  0  0  0  0  0  0  0  0
    1.3375   -3.7994    0.0000 C   0  0  0  0  0  0  0  0  0  0  0  0
    2.3539   -3.0850    0.0000 C   0  0  0  0  0  0  0  0  0  0  0  0
    3.0684   -2.6725    0.0000 C   0  0  0  0  0  0  0  0  0  0  0  0
    3.7829   -3.0850    0.0000 C   0  0  0  0  0  0  0  0  0  0  0  0
    4.4973   -3.4975    0.0000 C   0  0  0  0  0  0  0  0  0  0  0  0
    4.1954   -2.3705    0.0000 C   0  0  0  0  0  0  0  0  0  0  0  0
    3.3704   -3.7994    0.0000 C   0  0  0  0  0  0  0  0  0  0  0  0
  1  2  1  0  0  0  0
  3  2  1  0  0  0  0
  3  4  1  0  0  0  0
  4  5  1  0  0  0  0
  4  6  1  0  0  0  0
  4  7  1  0  0  0  0
  8  3  2  0  0  0  0
  9  8  1  0  0  0  0
  9 10  1  0  0  0  0
 10 11  1  0  0  0  0
 10 12  1  0  0  0  0
 10 13  1  0  0  0  0
 14  9  2  0  0  0  0
 15 14  1  0  0  0  0
  2 15  2  0  0  0  0
 15 16  1  0  0  0  0
 16 17  1  0  0  0  0
 16 18  1  0  0  0  0
 16 19  1  0  0  0  0
M  END
> <ChemID>
100926

> <CAS>
732-26-3

> <Original_SMILES>
CC(C)(C)c1cc(c(O)c(c1)C(C)(C)C)C(C)(C)C

> <preferred_name>
2,4,6-Tris(tert-butyl)phenol

> <dsstox_substance_id>
DTXSID2021311

> <dsstox_compound_id>
DTXCID401311

> <qc_level>
DSSTox_Low

> <Canonical_QSARr>
CC(C)(C)C1=CC(=C(O)C(=C1)C(C)(C)C)C(C)(C)C

> <InChI_Code_QSARr>
InChI=1S/C18H30O/c1-16(2,3)12-10-13(17(4,5)6)15(19)14(11-12)18(7,8)9/h10-11,19H,1-9H3

> <InChI Key_QSARr>
PFEFOYRSMXVNEL-UHFFFAOYSA-N

> <Salt_Solvent>


> <Salt_Solvent_ID>
0

> <MPID>
100926

> <Tr_1_Tst_0>
0

> <Ready_Biodeg>
0.0

$$$$
Row898
  Mrv171c012251911052D          

  6  5  0  0  0  0            999 V2000
    1.2375   -2.1439    0.0000 C   0  0  0  0  0  0  0  0  0  0  0  0
    1.6500   -1.4295    0.0000 C   0  0  0  0  0  0  0  0  0  0  0  0
    1.2375   -0.7150    0.0000 C   0  0  0  0  0  0  0  0  0  0  0  0
    1.6500   -0.0005    0.0000 C   0  0  0  0  0  0  0  0  0  0  0  0
    1.2375    0.7139    0.0000 Cl  0  0  0  0  0  0  0  0  0  0  0  0
    0.4125   -0.7150    0.0000 Cl  0  0  0  0  0  0  0  0  0  0  0  0
  1  2  2  0  0  0  0
  2  3  1  0  0  0  0
  3  4  1  0  0  0  0
  4  5  1  0  0  0  0
  3  6  1  0  0  0  0
M  END
> <ChemID>
100927

> <CAS>
760-23-6

> <Original_SMILES>
C=CC(Cl)CCl

> <preferred_name>
3,4-Dichloro-1-butene

> <dsstox_substance_id>
DTXSID8022113

> <dsstox_compound_id>
DTXCID902113

> <qc_level>
DSSTox_Low

> <Canonical_QSARr>
C=CC(Cl)CCl

> <InChI_Code_QSARr>
InChI=1S/C4H6Cl2/c1-2-4(6)3-5/h2,4H,1,3H2

> <InChI Key_QSARr>
XVEASTGLHPVZNA-UHFFFAOYSA-N

> <Salt_Solvent>


> <Salt_Solvent_ID>
0

> <MPID>
100927

> <Tr_1_Tst_0>
1

> <Ready_Biodeg>
0.0

$$$$
Row899
  Mrv171c012251911052D          

  9  9  0  0  0  0            999 V2000
    1.6723   -1.3320    0.0000 C   0  0  0  0  0  0  0  0  0  0  0  0
    1.6723   -2.1570    0.0000 C   0  0  0  0  0  0  0  0  0  0  0  0
    1.6723   -2.9820    0.0000 N   0  0  0  0  0  0  0  0  0  0  0  0
    2.3868   -0.9195    0.0000 C   0  0  0  0  0  0  0  0  0  0  0  0
    2.3868   -0.0945    0.0000 C   0  0  0  0  0  0  0  0  0  0  0  0
    1.6723    0.3180    0.0000 C   0  0  0  0  0  0  0  0  0  0  0  0
    1.6723    1.1430    0.0000 O   0  0  0  0  0  0  0  0  0  0  0  0
    0.9579   -0.0945    0.0000 C   0  0  0  0  0  0  0  0  0  0  0  0
    0.9579   -0.9195    0.0000 C   0  0  0  0  0  0  0  0  0  0  0  0
  1  2  1  0  0  0  0
  2  3  3  0  0  0  0
  4  1  2  0  0  0  0
  5  4  1  0  0  0  0
  6  5  2  0  0  0  0
  6  7  1  0  0  0  0
  8  6  1  0  0  0  0
  9  8  2  0  0  0  0
  1  9  1  0  0  0  0
M  END
> <ChemID>
100928

> <CAS>
767-00-0

> <Original_SMILES>
N#Cc1ccc(O)cc1

> <preferred_name>
4-Hydroxybenzonitrile

> <dsstox_substance_id>
DTXSID9052509

> <dsstox_compound_id>
DTXCID7031082

> <qc_level>
DSSTox_Low

> <Canonical_QSARr>
N#CC1C=CC(O)=CC=1

> <InChI_Code_QSARr>
InChI=1S/C7H5NO/c8-5-6-1-3-7(9)4-2-6/h1-4,9H

> <InChI Key_QSARr>
CVNOWLNNPYYEOH-UHFFFAOYSA-N

> <Salt_Solvent>


> <Salt_Solvent_ID>
0

> <MPID>
100928

> <Tr_1_Tst_0>
1

> <Ready_Biodeg>
0.0

$$$$
Row900
  Mrv171c012251911052D          

  9  9  0  0  0  0            999 V2000
    2.4439   -0.0842    0.0000 N   0  0  0  0  0  0  0  0  0  0  0  0
    2.4439    0.7408    0.0000 C   0  0  0  0  0  0  0  0  0  0  0  0
    3.1584    1.1533    0.0000 C   0  0  0  0  0  0  0  0  0  0  0  0
    3.1584    1.9783    0.0000 C   0  0  0  0  0  0  0  0  0  0  0  0
    3.8728    2.3908    0.0000 C   0  0  0  0  0  0  0  0  0  0  0  0
    1.7765   -0.5691    0.0000 C   0  0  0  0  0  0  0  0  0  0  0  0
    2.0314   -1.3537    0.0000 C   0  0  0  0  0  0  0  0  0  0  0  0
    2.8564   -1.3537    0.0000 C   0  0  0  0  0  0  0  0  0  0  0  0
    3.1113   -0.5691    0.0000 C   0  0  0  0  0  0  0  0  0  0  0  0
  1  2  1  0  0  0  0
  2  3  1  0  0  0  0
  3  4  1  0  0  0  0
  4  5  1  0  0  0  0
  6  1  1  0  0  0  0
  7  6  1  0  0  0  0
  8  7  1  0  0  0  0
  9  8  1  0  0  0  0
  1  9  1  0  0  0  0
M  END
> <ChemID>
100929

> <CAS>
767-10-2

> <Original_SMILES>
CCCCN1CCCC1

> <preferred_name>
Pyrrolidine, 1-butyl-

> <dsstox_substance_id>
DTXSID20227494

> <dsstox_compound_id>
DTXCID20149985

> <qc_level>
Public_Medium

> <Canonical_QSARr>
CCCCN1CCCC1

> <InChI_Code_QSARr>
InChI=1S/C8H17N/c1-2-3-6-9-7-4-5-8-9/h2-8H2,1H3

> <InChI Key_QSARr>
JSHASCFKOSDFHY-UHFFFAOYSA-N

> <Salt_Solvent>


> <Salt_Solvent_ID>
0

> <MPID>
100929

> <Tr_1_Tst_0>
1

> <Ready_Biodeg>
1.0

$$$$
Row901
  Mrv171c012251911052D          

 16 17  0  0  0  0            999 V2000
    1.0717    1.4437    0.0000 C   0  0  0  0  0  0  0  0  0  0  0  0
    1.0717    0.6187    0.0000 C   0  0  0  0  0  0  0  0  0  0  0  0
    1.7862    0.2062    0.0000 C   0  0  0  0  0  0  0  0  0  0  0  0
    2.5006    0.6187    0.0000 C   0  0  0  0  0  0  0  0  0  0  0  0
    2.5006    1.4437    0.0000 C   0  0  0  0  0  0  0  0  0  0  0  0
    1.7862    1.8562    0.0000 C   0  0  0  0  0  0  0  0  0  0  0  0
    1.7862    2.6812    0.0000 Cl  0  0  0  0  0  0  0  0  0  0  0  0
    0.3572    1.8562    0.0000 N   0  0  0  0  0  0  0  0  0  0  0  0
    0.3572    2.6812    0.0000 N   0  0  0  0  0  0  0  0  0  0  0  0
   -0.3572    3.0937    0.0000 C   0  0  0  0  0  0  0  0  0  0  0  0
   -0.3572    3.9187    0.0000 C   0  0  0  0  0  0  0  0  0  0  0  0
   -1.0717    4.3312    0.0000 C   0  0  0  0  0  0  0  0  0  0  0  0
   -1.7862    3.9187    0.0000 C   0  0  0  0  0  0  0  0  0  0  0  0
   -1.7862    3.0937    0.0000 C   0  0  0  0  0  0  0  0  0  0  0  0
   -1.0717    2.6812    0.0000 C   0  0  0  0  0  0  0  0  0  0  0  0
   -1.0717    1.8562    0.0000 Cl  0  0  0  0  0  0  0  0  0  0  0  0
  2  1  1  0  0  0  0
  3  2  2  0  0  0  0
  4  3  1  0  0  0  0
  5  4  2  0  0  0  0
  6  5  1  0  0  0  0
  1  6  2  0  0  0  0
  6  7  1  0  0  0  0
  1  8  1  0  0  0  0
  8  9  1  0  0  0  0
  9 10  1  0  0  0  0
 11 10  1  0  0  0  0
 12 11  2  0  0  0  0
 13 12  1  0  0  0  0
 14 13  2  0  0  0  0
 15 14  1  0  0  0  0
 10 15  2  0  0  0  0
 15 16  1  0  0  0  0
M  END
> <ChemID>
100930

> <CAS>
782-74-1

> <Original_SMILES>
Clc1ccccc1NNc1ccccc1Cl

> <preferred_name>
1,2-Bis(2-chlorophenyl)hydrazine

> <dsstox_substance_id>
DTXSID3061138

> <dsstox_compound_id>
DTXCID2048119

> <qc_level>
Public_High

> <Canonical_QSARr>
ClC1C=CC=CC=1NNC1C=CC=CC=1Cl

> <InChI_Code_QSARr>
InChI=1S/C12H10Cl2N2/c13-9-5-1-3-7-11(9)15-16-12-8-4-2-6-10(12)14/h1-8,15-16H

> <InChI Key_QSARr>
IWKMQNKKYZERHI-UHFFFAOYSA-N

> <Salt_Solvent>


> <Salt_Solvent_ID>
0

> <MPID>
100930

> <Tr_1_Tst_0>
0

> <Ready_Biodeg>
0.0

$$$$
Row902
  Mrv171c012251911052D          

  8  7  0  0  0  0            999 V2000
   -0.2995   -0.6648    0.0000 C   0  0  0  0  0  0  0  0  0  0  0  0
    0.4149   -1.0773    0.0000 C   0  0  0  0  0  0  0  0  0  0  0  0
    1.1294   -0.6648    0.0000 C   0  0  0  0  0  0  0  0  0  0  0  0
    1.8439   -1.0773    0.0000 O   0  0  0  0  0  0  0  0  0  0  0  0
    2.5583   -0.6648    0.0000 C   0  0  0  0  0  0  0  0  0  0  0  0
    3.2728   -1.0773    0.0000 C   0  0  0  0  0  0  0  0  0  0  0  0
    3.9873   -0.6648    0.0000 O   0  0  0  0  0  0  0  0  0  0  0  0
    1.1294    0.1602    0.0000 O   0  0  0  0  0  0  0  0  0  0  0  0
  1  2  2  0  0  0  0
  2  3  1  0  0  0  0
  3  4  1  0  0  0  0
  4  5  1  0  0  0  0
  5  6  1  0  0  0  0
  6  7  1  0  0  0  0
  3  8  2  0  0  0  0
M  END
> <ChemID>
100931

> <CAS>
818-61-1

> <Original_SMILES>
C=CC(=O)OCCO

> <preferred_name>
2-Hydroxyethyl acrylate

> <dsstox_substance_id>
DTXSID2022123

> <dsstox_compound_id>
DTXCID202123

> <qc_level>
DSSTox_Low

> <Canonical_QSARr>
C=CC(=O)OCCO

> <InChI_Code_QSARr>
InChI=1S/C5H8O3/c1-2-5(7)8-4-3-6/h2,6H,1,3-4H2

> <InChI Key_QSARr>
OMIGHNLMNHATMP-UHFFFAOYSA-N

> <Salt_Solvent>


> <Salt_Solvent_ID>
0

> <MPID>
100931

> <Tr_1_Tst_0>
1

> <Ready_Biodeg>
1.0

$$$$
Row903
  Mrv171c012251911052D          

 18 17  0  0  0  0            999 V2000
    6.7104    4.6992    0.0000 C   0  0  0  0  0  0  0  0  0  0  0  0
    5.9959    4.2867    0.0000 O   0  0  0  0  0  0  0  0  0  0  0  0
    6.7104    5.5242    0.0000 O   0  0  0  0  0  0  0  0  0  0  0  0
    7.4249    4.2867    0.0000 C   0  0  0  0  0  0  0  0  0  0  0  0
    8.1393    4.6992    0.0000 C   0  0  0  0  0  0  0  0  0  0  0  0
    8.8538    4.2867    0.0000 C   0  0  0  0  0  0  0  0  0  0  0  0
    9.5683    4.6992    0.0000 C   0  0  0  0  0  0  0  0  0  0  0  0
   10.2828    4.2867    0.0000 C   0  0  0  0  0  0  0  0  0  0  0  0
   10.9972    4.6992    0.0000 C   0  0  0  0  0  0  0  0  0  0  0  0
   11.7117    4.2867    0.0000 C   0  0  0  0  0  0  0  0  0  0  0  0
   12.4262    4.6992    0.0000 C   0  0  0  0  0  0  0  0  0  0  0  0
   13.1406    4.2867    0.0000 C   0  0  0  0  0  0  0  0  0  0  0  0
   13.8551    4.6992    0.0000 C   0  0  0  0  0  0  0  0  0  0  0  0
   14.5696    4.2867    0.0000 C   0  0  0  0  0  0  0  0  0  0  0  0
   15.2841    4.6992    0.0000 C   0  0  0  0  0  0  0  0  0  0  0  0
   15.9985    4.2867    0.0000 C   0  0  0  0  0  0  0  0  0  0  0  0
   16.7130    4.6992    0.0000 O   0  0  0  0  0  0  0  0  0  0  0  0
   15.9985    3.4617    0.0000 O   0  0  0  0  0  0  0  0  0  0  0  0
  1  2  2  0  0  0  0
  1  3  1  0  0  0  0
  1  4  1  0  0  0  0
  4  5  1  0  0  0  0
  5  6  1  0  0  0  0
  6  7  1  0  0  0  0
  7  8  1  0  0  0  0
  8  9  1  0  0  0  0
  9 10  1  0  0  0  0
 10 11  1  0  0  0  0
 11 12  1  0  0  0  0
 12 13  1  0  0  0  0
 13 14  1  0  0  0  0
 14 15  1  0  0  0  0
 15 16  1  0  0  0  0
 16 17  2  0  0  0  0
 16 18  1  0  0  0  0
M  END
> <ChemID>
100932

> <CAS>
821-38-5

> <Original_SMILES>
OC(=O)CCCCCCCCCCCCC(O)=O

> <preferred_name>
Tetradecanedioic acid

> <dsstox_substance_id>
DTXSID5061166

> <dsstox_compound_id>
DTXCID5048265

> <qc_level>
Public_High

> <Canonical_QSARr>
OC(=O)CCCCCCCCCCCCC(O)=O

> <InChI_Code_QSARr>
InChI=1S/C14H26O4/c15-13(16)11-9-7-5-3-1-2-4-6-8-10-12-14(17)18/h1-12H2,(H,15,16)(H,17,18)

> <InChI Key_QSARr>
HQHCYKULIHKCEB-UHFFFAOYSA-N

> <Salt_Solvent>


> <Salt_Solvent_ID>
0

> <MPID>
100932

> <Tr_1_Tst_0>
1

> <Ready_Biodeg>
1.0

$$$$
Row904
  Mrv171c012251911052D          

  7  6  0  0  0  0            999 V2000
    1.7605    1.8414    0.0000 O   0  0  0  0  0  0  0  0  0  0  0  0
    2.4749    1.4289    0.0000 C   0  0  0  0  0  0  0  0  0  0  0  0
    3.1894    1.8414    0.0000 C   0  0  0  0  0  0  0  0  0  0  0  0
    3.9039    1.4289    0.0000 C   0  0  0  0  0  0  0  0  0  0  0  0
    4.6184    1.8414    0.0000 C   0  0  0  0  0  0  0  0  0  0  0  0
    5.3328    1.4289    0.0000 C   0  0  0  0  0  0  0  0  0  0  0  0
    6.0473    1.8414    0.0000 C   0  0  0  0  0  0  0  0  0  0  0  0
  1  2  1  0  0  0  0
  2  3  1  0  0  0  0
  3  4  1  0  0  0  0
  4  5  1  0  0  0  0
  5  6  1  0  0  0  0
  6  7  2  0  0  0  0
M  END
> <ChemID>
100933

> <CAS>
821-41-0

> <Original_SMILES>
C=CCCCCO

> <preferred_name>
5-Hexen-1-ol

> <dsstox_substance_id>
DTXSID2074950

> <dsstox_compound_id>
DTXCID0048266

> <qc_level>
Public_High

> <Canonical_QSARr>
C=CCCCCO

> <InChI_Code_QSARr>
InChI=1S/C6H12O/c1-2-3-4-5-6-7/h2,7H,1,3-6H2

> <InChI Key_QSARr>
UIZVMOZAXAMASY-UHFFFAOYSA-N

> <Salt_Solvent>


> <Salt_Solvent_ID>
0

> <MPID>
100933

> <Tr_1_Tst_0>
1

> <Ready_Biodeg>
1.0

$$$$
Row905
  Mrv171c012251911052D          

 12 12  0  0  0  0            999 V2000
    4.0466   -2.4719    0.0000 C   0  0  0  0  0  0  0  0  0  0  0  0
    3.3321   -2.0594    0.0000 C   0  0  0  0  0  0  0  0  0  0  0  0
    3.3321   -1.2344    0.0000 O   0  0  0  0  0  0  0  0  0  0  0  0
    2.6176   -0.8219    0.0000 C   0  0  0  0  0  0  0  0  0  0  0  0
    2.6176    0.0031    0.0000 C   0  0  0  0  0  0  0  0  0  0  0  0
    1.9032   -1.2344    0.0000 O   0  0  0  0  0  0  0  0  0  0  0  0
    1.9032   -2.0594    0.0000 C   0  0  0  0  0  0  0  0  0  0  0  0
    1.1887   -2.4719    0.0000 O   0  0  0  0  0  0  0  0  0  0  0  0
    0.4742   -2.0594    0.0000 C   0  0  0  0  0  0  0  0  0  0  0  0
   -0.2403   -2.4719    0.0000 C   0  0  0  0  0  0  0  0  0  0  0  0
    0.4742   -1.2344    0.0000 O   0  0  0  0  0  0  0  0  0  0  0  0
    2.6176   -2.4719    0.0000 C   0  0  0  0  0  0  0  0  0  0  0  0
  1  2  1  0  0  0  0
  3  2  1  0  0  0  0
  4  3  1  0  0  0  0
  4  5  1  0  0  0  0
  6  4  1  0  0  0  0
  7  6  1  0  0  0  0
  7  8  1  0  0  0  0
  8  9  1  0  0  0  0
  9 10  1  0  0  0  0
  9 11  2  0  0  0  0
 12  7  1  0  0  0  0
  2 12  1  0  0  0  0
M  END
> <ChemID>
100934

> <CAS>
828-00-2

> <Original_SMILES>
CC1OC(CC(C)O1)OC(C)=O

> <preferred_name>
Dimethoxane

> <dsstox_substance_id>
DTXSID6020480

> <dsstox_compound_id>
DTXCID00480

> <qc_level>
DSSTox_Low

> <Canonical_QSARr>
CC1OC(CC(C)O1)OC(C)=O

> <InChI_Code_QSARr>
InChI=1S/C8H14O4/c1-5-4-8(11-6(2)9)12-7(3)10-5/h5,7-8H,4H2,1-3H3

> <InChI Key_QSARr>
PHMNXPYGVPEQSJ-UHFFFAOYSA-N

> <Salt_Solvent>


> <Salt_Solvent_ID>
0

> <MPID>
100934

> <Tr_1_Tst_0>
0

> <Ready_Biodeg>
1.0

$$$$
Row906
  Mrv171c012251911052D          

 18 18  0  0  0  0            999 V2000
    5.4645   -0.9617    0.0000 O   0  0  0  0  0  0  0  0  0  0  0  0
    4.7500   -1.3742    0.0000 C   0  0  0  0  0  0  0  0  0  0  0  0
    4.0356   -0.9617    0.0000 C   0  0  0  0  0  0  0  0  0  0  0  0
    3.3211   -1.3742    0.0000 N   0  0  0  0  0  0  0  0  0  0  0  0
    2.6066   -0.9617    0.0000 C   0  0  0  0  0  0  0  0  0  0  0  0
    2.6066   -0.1367    0.0000 O   0  0  0  0  0  0  0  0  0  0  0  0
    1.8921   -1.3742    0.0000 N   0  0  0  0  0  0  0  0  0  0  0  0
    1.1777   -0.9617    0.0000 C   0  0  0  0  0  0  0  0  0  0  0  0
    1.1777   -0.1367    0.0000 C   0  0  0  0  0  0  0  0  0  0  0  0
    0.4632    0.2758    0.0000 O   0  0  0  0  0  0  0  0  0  0  0  0
    1.8921   -2.1992    0.0000 C   0  0  0  0  0  0  0  0  0  0  0  0
    1.1777   -2.6117    0.0000 O   0  0  0  0  0  0  0  0  0  0  0  0
    2.6066   -2.6117    0.0000 N   0  0  0  0  0  0  0  0  0  0  0  0
    2.6066   -3.4367    0.0000 C   0  0  0  0  0  0  0  0  0  0  0  0
    3.3211   -3.8492    0.0000 C   0  0  0  0  0  0  0  0  0  0  0  0
    3.3211   -4.6742    0.0000 O   0  0  0  0  0  0  0  0  0  0  0  0
    3.3211   -2.1992    0.0000 C   0  0  0  0  0  0  0  0  0  0  0  0
    4.0356   -2.6117    0.0000 O   0  0  0  0  0  0  0  0  0  0  0  0
  1  2  1  0  0  0  0
  2  3  1  0  0  0  0
  3  4  1  0  0  0  0
  5  4  1  0  0  0  0
  5  6  2  0  0  0  0
  7  5  1  0  0  0  0
  7  8  1  0  0  0  0
  8  9  1  0  0  0  0
  9 10  1  0  0  0  0
 11  7  1  0  0  0  0
 11 12  2  0  0  0  0
 13 11  1  0  0  0  0
 13 14  1  0  0  0  0
 14 15  1  0  0  0  0
 15 16  1  0  0  0  0
 17 13  1  0  0  0  0
  4 17  1  0  0  0  0
 17 18  2  0  0  0  0
M  END
> <ChemID>
100936

> <CAS>
839-90-7

> <Original_SMILES>
OCCN1C(=O)N(CCO)C(=O)N(CCO)C1=O

> <preferred_name>
Tris(2-hydroxyethyl) isocyanurate

> <dsstox_substance_id>
DTXSID4026266

> <dsstox_compound_id>
DTXCID206266

> <qc_level>
DSSTox_Low

> <Canonical_QSARr>
OCCN1C(=O)N(CCO)C(=O)N(CCO)C1=O

> <InChI_Code_QSARr>
InChI=1S/C9H15N3O6/c13-4-1-10-7(16)11(2-5-14)9(18)12(3-6-15)8(10)17/h13-15H,1-6H2

> <InChI Key_QSARr>
BPXVHIRIPLPOPT-UHFFFAOYSA-N

> <Salt_Solvent>


> <Salt_Solvent_ID>
0

> <MPID>
100935

> <Tr_1_Tst_0>
1

> <Ready_Biodeg>
0.0

$$$$
Row907
  Mrv171c012251911052D          

  9  8  0  0  0  0            999 V2000
    0.0019   -0.8718    0.0000 C   0  0  0  0  0  0  0  0  0  0  0  0
    0.7164   -1.2843    0.0000 C   0  0  0  0  0  0  0  0  0  0  0  0
    1.4308   -0.8718    0.0000 C   0  0  0  0  0  0  0  0  0  0  0  0
    2.1453   -1.2843    0.0000 O   0  0  0  0  0  0  0  0  0  0  0  0
    2.8598   -0.8718    0.0000 C   0  0  0  0  0  0  0  0  0  0  0  0
    3.5742   -1.2843    0.0000 C   0  0  0  0  0  0  0  0  0  0  0  0
    4.2887   -0.8718    0.0000 O   0  0  0  0  0  0  0  0  0  0  0  0
    1.4308   -0.0468    0.0000 O   0  0  0  0  0  0  0  0  0  0  0  0
    0.7164   -2.1093    0.0000 C   0  0  0  0  0  0  0  0  0  0  0  0
  1  2  2  0  0  0  0
  2  3  1  0  0  0  0
  3  4  1  0  0  0  0
  4  5  1  0  0  0  0
  5  6  1  0  0  0  0
  6  7  1  0  0  0  0
  3  8  2  0  0  0  0
  2  9  1  0  0  0  0
M  END
> <ChemID>
100938

> <CAS>
868-77-9

> <Original_SMILES>
CC(=C)C(=O)OCCO

> <preferred_name>
2-Hydroxyethyl methacrylate

> <dsstox_substance_id>
DTXSID7022128

> <dsstox_compound_id>
DTXCID202128

> <qc_level>
DSSTox_High

> <Canonical_QSARr>
CC(=C)C(=O)OCCO

> <InChI_Code_QSARr>
InChI=1S/C6H10O3/c1-5(2)6(8)9-4-3-7/h7H,1,3-4H2,2H3

> <InChI Key_QSARr>
WOBHKFSMXKNTIM-UHFFFAOYSA-N

> <Salt_Solvent>


> <Salt_Solvent_ID>
0

> <MPID>
100936

> <Tr_1_Tst_0>
1

> <Ready_Biodeg>
1.0

$$$$
Row908
  Mrv171c012251911052D          

 11 10  0  0  0  0            999 V2000
    2.0066   -1.4581    0.0000 C   0  0  0  0  0  0  0  0  0  0  0  0
    1.2921   -1.0456    0.0000 O   0  0  0  0  0  0  0  0  0  0  0  0
    0.5776   -1.4581    0.0000 C   0  0  0  0  0  0  0  0  0  0  0  0
   -0.1368   -1.0456    0.0000 C   0  0  0  0  0  0  0  0  0  0  0  0
    0.5776   -2.2831    0.0000 O   0  0  0  0  0  0  0  0  0  0  0  0
    2.7211   -1.0456    0.0000 O   0  0  0  0  0  0  0  0  0  0  0  0
    3.4355   -1.4581    0.0000 C   0  0  0  0  0  0  0  0  0  0  0  0
    4.1500   -1.0456    0.0000 C   0  0  0  0  0  0  0  0  0  0  0  0
    3.4355   -2.2831    0.0000 O   0  0  0  0  0  0  0  0  0  0  0  0
    2.0066   -2.2831    0.0000 C   0  0  0  0  0  0  0  0  0  0  0  0
    2.7211   -2.6956    0.0000 C   0  0  0  0  0  0  0  0  0  0  0  0
  1  2  1  0  0  0  0
  2  3  1  0  0  0  0
  3  4  1  0  0  0  0
  3  5  2  0  0  0  0
  1  6  1  0  0  0  0
  6  7  1  0  0  0  0
  7  8  1  0  0  0  0
  7  9  2  0  0  0  0
  1 10  1  0  0  0  0
 10 11  2  0  0  0  0
M  END
> <ChemID>
100939

> <CAS>
869-29-4

> <Original_SMILES>
CC(=O)OC(C=C)OC(C)=O

> <preferred_name>
2-Propene-1,1-diol diacetate

> <dsstox_substance_id>
DTXSID8041450

> <dsstox_compound_id>
DTXCID6021450

> <qc_level>
DSSTox_Low

> <Canonical_QSARr>
CC(=O)OC(C=C)OC(C)=O

> <InChI_Code_QSARr>
InChI=1S/C7H10O4/c1-4-7(10-5(2)8)11-6(3)9/h4,7H,1H2,2-3H3

> <InChI Key_QSARr>
TXECTBGVEUDNSL-UHFFFAOYSA-N

> <Salt_Solvent>


> <Salt_Solvent_ID>
0

> <MPID>
100937

> <Tr_1_Tst_0>
1

> <Ready_Biodeg>
1.0

$$$$
Row909
  Mrv171c012251911052D          

  7  7  0  0  0  0            999 V2000
   -0.0042   -1.0575    0.0000 O   0  0  0  0  0  0  0  0  0  0  0  0
    0.7805   -1.3125    0.0000 C   0  0  0  0  0  0  0  0  0  0  0  0
    1.0354   -2.0971    0.0000 C   0  0  0  0  0  0  0  0  0  0  0  0
    1.8604   -2.0971    0.0000 C   0  0  0  0  0  0  0  0  0  0  0  0
    2.1153   -1.3125    0.0000 C   0  0  0  0  0  0  0  0  0  0  0  0
    1.4479   -0.8275    0.0000 N   0  0  0  0  0  0  0  0  0  0  0  0
    1.4479   -0.0025    0.0000 C   0  0  0  0  0  0  0  0  0  0  0  0
  1  2  2  0  0  0  0
  3  2  1  0  0  0  0
  4  3  1  0  0  0  0
  5  4  1  0  0  0  0
  6  5  1  0  0  0  0
  2  6  1  0  0  0  0
  6  7  1  0  0  0  0
M  END
> <ChemID>
100940

> <CAS>
872-50-4

> <Original_SMILES>
CN1CCCC1=O

> <preferred_name>
N-Methyl-2-pyrrolidone

> <dsstox_substance_id>
DTXSID6020856

> <dsstox_compound_id>
DTXCID60856

> <qc_level>
DSSTox_Low

> <Canonical_QSARr>
CN1CCCC1=O

> <InChI_Code_QSARr>
InChI=1S/C5H9NO/c1-6-4-2-3-5(6)7/h2-4H2,1H3

> <InChI Key_QSARr>
SECXISVLQFMRJM-UHFFFAOYSA-N

> <Salt_Solvent>


> <Salt_Solvent_ID>
0

> <MPID>
100938

> <Tr_1_Tst_0>
0

> <Ready_Biodeg>
1.0

$$$$
Row910
  Mrv171c012251911052D          

 16 16  0  0  0  0            999 V2000
    5.1711   -2.0503    0.0000 C   0  0  0  0  0  0  0  0  0  0  0  0
    4.4566   -2.4628    0.0000 C   0  0  0  0  0  0  0  0  0  0  0  0
    3.7421   -2.8753    0.0000 N   0  0  0  0  0  0  0  0  0  0  0  0
    3.0277   -2.4628    0.0000 C   0  0  0  0  0  0  0  0  0  0  0  0
    3.0277   -1.6378    0.0000 N   0  0  0  0  0  0  0  0  0  0  0  0
    2.3132   -1.2253    0.0000 C   0  0  0  0  0  0  0  0  0  0  0  0
    2.3132   -0.4003    0.0000 S   0  0  0  0  0  0  0  0  0  0  0  0
    1.5987    0.0122    0.0000 C   0  0  0  0  0  0  0  0  0  0  0  0
    1.5987   -1.6378    0.0000 N   0  0  0  0  0  0  0  0  0  0  0  0
    1.5987   -2.4628    0.0000 C   0  0  0  0  0  0  0  0  0  0  0  0
    0.8842   -2.8753    0.0000 N   0  0  0  0  0  0  0  0  0  0  0  0
    0.1698   -2.4628    0.0000 C   0  0  0  0  0  0  0  0  0  0  0  0
   -0.5447   -2.8753    0.0000 C   0  0  0  0  0  0  0  0  0  0  0  0
    2.3132   -2.8753    0.0000 N   0  0  0  0  0  0  0  0  0  0  0  0
    4.0441   -1.7483    0.0000 C   0  0  0  0  0  0  0  0  0  0  0  0
    4.8691   -3.1772    0.0000 C   0  0  0  0  0  0  0  0  0  0  0  0
  1  2  1  0  0  0  0
  2  3  1  0  0  0  0
  3  4  1  0  0  0  0
  5  4  1  0  0  0  0
  6  5  2  0  0  0  0
  6  7  1  0  0  0  0
  7  8  1  0  0  0  0
  9  6  1  0  0  0  0
 10  9  2  0  0  0  0
 10 11  1  0  0  0  0
 11 12  1  0  0  0  0
 12 13  1  0  0  0  0
 14 10  1  0  0  0  0
  4 14  2  0  0  0  0
  2 15  1  0  0  0  0
  2 16  1  0  0  0  0
M  END
> <ChemID>
100941

> <CAS>
886-50-0

> <Original_SMILES>
CCNc1[n]c(NC(C)(C)C)[n]c([n]1)SC

> <preferred_name>
Terbutryn

> <dsstox_substance_id>
DTXSID3024318

> <dsstox_compound_id>
DTXCID504318

> <qc_level>
DSSTox_Low

> <Canonical_QSARr>
CCNC1N=C(NC(C)(C)C)N=C(N=1)SC

> <InChI_Code_QSARr>
InChI=1S/C10H19N5S/c1-6-11-7-12-8(15-10(2,3)4)14-9(13-7)16-5/h6H2,1-5H3,(H2,11,12,13,14,15)

> <InChI Key_QSARr>
IROINLKCQGIITA-UHFFFAOYSA-N

> <Salt_Solvent>


> <Salt_Solvent_ID>
0

> <MPID>
100939

> <Tr_1_Tst_0>
1

> <Ready_Biodeg>
0.0

$$$$
Row911
  Mrv171c012251911052D          

 10  9  0  0  0  0            999 V2000
    1.4413   -0.7697    0.0000 C   0  0  0  0  0  0  0  0  0  0  0  0
    1.4413   -1.5947    0.0000 C   0  0  0  0  0  0  0  0  0  0  0  0
    0.7268   -2.0072    0.0000 C   0  0  0  0  0  0  0  0  0  0  0  0
    0.0124   -2.4197    0.0000 F   0  0  0  0  0  0  0  0  0  0  0  0
    1.1393   -2.7217    0.0000 F   0  0  0  0  0  0  0  0  0  0  0  0
    0.3143   -1.2928    0.0000 F   0  0  0  0  0  0  0  0  0  0  0  0
    2.1558   -2.0072    0.0000 O   0  0  0  0  0  0  0  0  0  0  0  0
    1.4413    0.0553    0.0000 F   0  0  0  0  0  0  0  0  0  0  0  0
    2.2663   -0.7697    0.0000 F   0  0  0  0  0  0  0  0  0  0  0  0
    0.6163   -0.7697    0.0000 F   0  0  0  0  0  0  0  0  0  0  0  0
  1  2  1  0  0  0  0
  2  3  1  0  0  0  0
  3  4  1  0  0  0  0
  3  5  1  0  0  0  0
  3  6  1  0  0  0  0
  2  7  1  0  0  0  0
  1  8  1  0  0  0  0
  1  9  1  0  0  0  0
  1 10  1  0  0  0  0
M  END
> <ChemID>
100942

> <CAS>
920-66-1

> <Original_SMILES>
OC(C(F)(F)F)C(F)(F)F

> <preferred_name>
1,1,1,3,3,3-Hexafluoro-2-propanol

> <dsstox_substance_id>
DTXSID1022134

> <dsstox_compound_id>
DTXCID902134

> <qc_level>
DSSTox_Low

> <Canonical_QSARr>
OC(C(F)(F)F)C(F)(F)F

> <InChI_Code_QSARr>
InChI=1S/C3H2F6O/c4-2(5,6)1(10)3(7,8)9/h1,10H

> <InChI Key_QSARr>
BYEAHWXPCBROCE-UHFFFAOYSA-N

> <Salt_Solvent>


> <Salt_Solvent_ID>
0

> <MPID>
100940

> <Tr_1_Tst_0>
1

> <Ready_Biodeg>
0.0

$$$$
Row912
  Mrv171c012251911052D          

 12 11  0  0  0  0            999 V2000
    7.0934    3.2704    0.0000 C   0  0  0  0  0  0  0  0  0  0  0  0
    6.3789    2.8579    0.0000 C   0  0  0  0  0  0  0  0  0  0  0  0
    5.6645    3.2704    0.0000 C   0  0  0  0  0  0  0  0  0  0  0  0
    4.9500    2.8579    0.0000 C   0  0  0  0  0  0  0  0  0  0  0  0
    4.2355    3.2704    0.0000 C   0  0  0  0  0  0  0  0  0  0  0  0
    7.8079    2.8579    0.0000 C   0  0  0  0  0  0  0  0  0  0  0  0
    7.8079    2.0329    0.0000 O   0  0  0  0  0  0  0  0  0  0  0  0
    8.5224    3.2704    0.0000 C   0  0  0  0  0  0  0  0  0  0  0  0
    9.2368    2.8579    0.0000 C   0  0  0  0  0  0  0  0  0  0  0  0
    9.9513    3.2704    0.0000 C   0  0  0  0  0  0  0  0  0  0  0  0
   10.6658    2.8579    0.0000 C   0  0  0  0  0  0  0  0  0  0  0  0
   11.3802    3.2704    0.0000 C   0  0  0  0  0  0  0  0  0  0  0  0
  1  2  1  0  0  0  0
  2  3  1  0  0  0  0
  3  4  1  0  0  0  0
  4  5  1  0  0  0  0
  1  6  1  0  0  0  0
  6  7  2  0  0  0  0
  6  8  1  0  0  0  0
  8  9  1  0  0  0  0
  9 10  1  0  0  0  0
 10 11  1  0  0  0  0
 11 12  1  0  0  0  0
M  END
> <ChemID>
100943

> <CAS>
927-49-1

> <Original_SMILES>
CCCCCC(=O)CCCCC

> <preferred_name>
6-Undecanone

> <dsstox_substance_id>
DTXSID5061295

> <dsstox_compound_id>
DTXCID9048809

> <qc_level>
Public_High

> <Canonical_QSARr>
CCCCCC(=O)CCCCC

> <InChI_Code_QSARr>
InChI=1S/C11H22O/c1-3-5-7-9-11(12)10-8-6-4-2/h3-10H2,1-2H3

> <InChI Key_QSARr>
ZPQAKYPOZRXKFA-UHFFFAOYSA-N

> <Salt_Solvent>


> <Salt_Solvent_ID>
0

> <MPID>
100941

> <Tr_1_Tst_0>
1

> <Ready_Biodeg>
1.0

$$$$
Row913
  Mrv171c012251911052D          

 11 12  0  0  0  0            999 V2000
   -0.8451   -1.4521    0.0000 O   0  0  0  0  0  0  0  0  0  0  0  0
   -0.5902   -0.6674    0.0000 C   0  0  0  0  0  0  0  0  0  0  0  0
   -1.0751   -0.0000    0.0000 O   0  0  0  0  0  0  0  0  0  0  0  0
   -0.5902    0.6674    0.0000 C   0  0  0  0  0  0  0  0  0  0  0  0
   -0.8451    1.4521    0.0000 O   0  0  0  0  0  0  0  0  0  0  0  0
    0.1944    0.4125    0.0000 C   0  0  0  0  0  0  0  0  0  0  0  0
    0.9089    0.8250    0.0000 C   0  0  0  0  0  0  0  0  0  0  0  0
    1.6234    0.4125    0.0000 C   0  0  0  0  0  0  0  0  0  0  0  0
    1.6234   -0.4125    0.0000 C   0  0  0  0  0  0  0  0  0  0  0  0
    0.9089   -0.8250    0.0000 C   0  0  0  0  0  0  0  0  0  0  0  0
    0.1944   -0.4125    0.0000 C   0  0  0  0  0  0  0  0  0  0  0  0
  1  2  2  0  0  0  0
  3  2  1  0  0  0  0
  4  3  1  0  0  0  0
  4  5  2  0  0  0  0
  6  4  1  0  0  0  0
  6  7  1  0  0  0  0
  7  8  1  0  0  0  0
  8  9  2  0  0  0  0
  9 10  1  0  0  0  0
 10 11  1  0  0  0  0
  2 11  1  0  0  0  0
 11  6  1  0  0  0  0
M  END
> <ChemID>
100944

> <CAS>
85-43-8

> <Original_SMILES>
O=C1OC(=O)[C@@H]2CC=CCC12

> <preferred_name>
trans-4-Cyclohexene-1,2-dicarboxylic anhydride

> <dsstox_substance_id>
DTXSID3026516

> <dsstox_compound_id>
DTXCID306516

> <qc_level>
DSSTox_High

> <Canonical_QSARr>
O=C1OC(=O)C2CC=CCC12

> <InChI_Code_QSARr>
InChI=1S/C8H8O3/c9-7-5-3-1-2-4-6(5)8(10)11-7/h1-2,5-6H,3-4H2

> <InChI Key_QSARr>
KMOUUZVZFBCRAM-UHFFFAOYSA-N

> <Salt_Solvent>


> <Salt_Solvent_ID>
0

> <MPID>
100942

> <Tr_1_Tst_0>
0

> <Ready_Biodeg>
0.0

$$$$
Row914
  Mrv171c012251911052D          

 14 14  0  0  0  0            999 V2000
    0.8634    0.1535    0.0000 N   0  0  0  0  0  0  0  0  0  0  0  0
    0.7877   -0.6681    0.0000 C   0  0  0  0  0  0  0  0  0  0  0  0
    0.1519   -1.3090    0.0000 C   0  0  0  0  0  0  0  0  0  0  0  0
    0.3338   -2.1137    0.0000 C   0  0  0  0  0  0  0  0  0  0  0  0
    1.1216   -2.3585    0.0000 C   0  0  0  0  0  0  0  0  0  0  0  0
    1.3036   -3.1632    0.0000 C   0  0  0  0  0  0  0  0  0  0  0  0
    2.0914   -3.4080    0.0000 C   0  0  0  0  0  0  0  0  0  0  0  0
    2.6973   -2.8481    0.0000 C   0  0  0  0  0  0  0  0  0  0  0  0
    2.5154   -2.0434    0.0000 C   0  0  0  0  0  0  0  0  0  0  0  0
    3.1213   -1.4835    0.0000 C   0  0  0  0  0  0  0  0  0  0  0  0
    2.9394   -0.6788    0.0000 C   0  0  0  0  0  0  0  0  0  0  0  0
    2.0897   -0.3737    0.0000 C   0  0  0  0  0  0  0  0  0  0  0  0
    1.6681    0.3354    0.0000 C   0  0  0  0  0  0  0  0  0  0  0  0
    1.9939    1.0933    0.0000 O   0  0  0  0  0  0  0  0  0  0  0  0
  2  1  1  0  0  0  0
  3  2  1  0  0  0  0
  4  3  1  0  0  0  0
  5  4  1  0  0  0  0
  6  5  1  0  0  0  0
  7  6  1  0  0  0  0
  8  7  1  0  0  0  0
  9  8  1  0  0  0  0
 10  9  1  0  0  0  0
 11 10  1  0  0  0  0
 12 11  1  0  0  0  0
 13 12  1  0  0  0  0
  1 13  1  0  0  0  0
 13 14  2  0  0  0  0
M  END
> <ChemID>
100945

> <CAS>
947-04-6

> <Original_SMILES>
O=C1CCCCCCCCCCCN1

> <preferred_name>
Azacyclotridecan-2-one

> <dsstox_substance_id>
DTXSID1027344

> <dsstox_compound_id>
DTXCID107344

> <qc_level>
DSSTox_Low

> <Canonical_QSARr>
O=C1CCCCCCCCCCCN1

> <InChI_Code_QSARr>
InChI=1S/C12H23NO/c14-12-10-8-6-4-2-1-3-5-7-9-11-13-12/h1-11H2,(H,13,14)

> <InChI Key_QSARr>
JHWNWJKBPDFINM-UHFFFAOYSA-N

> <Salt_Solvent>


> <Salt_Solvent_ID>
0

> <MPID>
100943

> <Tr_1_Tst_0>
1

> <Ready_Biodeg>
0.0

$$$$
Row915
  Mrv171c012251911052D          

 19 19  0  0  0  0            999 V2000
   -0.7145    4.5375    0.0000 C   0  0  0  0  0  0  0  0  0  0  0  0
    0.0000    4.1250    0.0000 O   0  0  0  0  0  0  0  0  0  0  0  0
    0.0000    3.3000    0.0000 P   0  0  0  0  0  0  0  0  0  0  0  0
   -0.8250    3.3000    0.0000 O   0  0  0  0  0  0  0  0  0  0  0  0
    0.0000    2.4750    0.0000 O   0  0  0  0  0  0  0  0  0  0  0  0
    0.7145    2.0625    0.0000 C   0  0  0  0  0  0  0  0  0  0  0  0
    1.4289    2.4750    0.0000 C   0  0  0  0  0  0  0  0  0  0  0  0
    2.1434    2.0625    0.0000 Cl  0  0  0  0  0  0  0  0  0  0  0  0
    0.7145    1.2375    0.0000 C   0  0  0  0  0  0  0  0  0  0  0  0
    1.4289    0.8250    0.0000 C   0  0  0  0  0  0  0  0  0  0  0  0
    1.4289   -0.0000    0.0000 C   0  0  0  0  0  0  0  0  0  0  0  0
    2.1434   -0.4125    0.0000 Cl  0  0  0  0  0  0  0  0  0  0  0  0
    0.7145   -0.4125    0.0000 C   0  0  0  0  0  0  0  0  0  0  0  0
    0.7145   -1.2375    0.0000 Cl  0  0  0  0  0  0  0  0  0  0  0  0
    0.0000    0.0000    0.0000 C   0  0  0  0  0  0  0  0  0  0  0  0
    0.0000    0.8250    0.0000 C   0  0  0  0  0  0  0  0  0  0  0  0
   -0.7145    1.2375    0.0000 Cl  0  0  0  0  0  0  0  0  0  0  0  0
    0.8250    3.3000    0.0000 O   0  0  0  0  0  0  0  0  0  0  0  0
    1.2375    4.0145    0.0000 C   0  0  0  0  0  0  0  0  0  0  0  0
  1  2  1  0  0  0  0
  2  3  1  0  0  0  0
  3  4  2  0  0  0  0
  3  5  1  0  0  0  0
  5  6  1  0  0  0  0
  6  7  2  0  0  0  0
  7  8  1  4  0  0  0
  6  9  1  0  0  0  0
  9 10  1  0  0  0  0
 10 11  2  0  0  0  0
 11 12  1  0  0  0  0
 11 13  1  0  0  0  0
 13 14  1  0  0  0  0
 13 15  2  0  0  0  0
 15 16  1  0  0  0  0
  9 16  2  0  0  0  0
 16 17  1  0  0  0  0
  3 18  1  0  0  0  0
 18 19  1  0  0  0  0
M  END
> <ChemID>
100946

> <CAS>
961-11-5

> <Original_SMILES>
COP(=O)(OC(=CCl)c1cc(Cl)c(Cl)cc1Cl)OC

> <preferred_name>
Tetrachlorovinphos

> <dsstox_substance_id>
DTXSID1021320

> <dsstox_compound_id>
DTXCID301320

> <qc_level>
DSSTox_High

> <Canonical_QSARr>
COP(=O)(OC(=CCl)C1C=C(Cl)C(Cl)=CC=1Cl)OC

> <InChI_Code_QSARr>
InChI=1S/C10H9Cl4O4P/c1-16-19(15,17-2)18-10(5-11)6-3-8(13)9(14)4-7(6)12/h3-5H,1-2H3

> <InChI Key_QSARr>
UBCKGWBNUIFUST-UHFFFAOYSA-N

> <Salt_Solvent>


> <Salt_Solvent_ID>
0

> <MPID>
100944

> <Tr_1_Tst_0>
1

> <Ready_Biodeg>
0.0

$$$$
Row916
  Mrv171c001112021182D          

 20 20  0  0  0  0            999 V2000
    0.0000    0.1300    0.0000 N   0  3  0  0  0  0  0  0  0  0  0  0
    0.7145   -0.2825    0.0000 C   0  0  0  0  0  0  0  0  0  0  0  0
    1.4290    0.1300    0.0000 C   0  0  0  0  0  0  0  0  0  0  0  0
    2.1435   -0.2825    0.0000 C   0  0  0  0  0  0  0  0  0  0  0  0
    2.8579    0.1300    0.0000 C   0  0  0  0  0  0  0  0  0  0  0  0
    3.5724   -0.2825    0.0000 C   0  0  0  0  0  0  0  0  0  0  0  0
    4.2869    0.1300    0.0000 C   0  0  0  0  0  0  0  0  0  0  0  0
    5.0013   -0.2825    0.0000 C   0  0  0  0  0  0  0  0  0  0  0  0
    5.7158    0.1300    0.0000 C   0  0  0  0  0  0  0  0  0  0  0  0
    6.4303   -0.2825    0.0000 C   0  0  0  0  0  0  0  0  0  0  0  0
    7.1448    0.1300    0.0000 C   0  0  0  0  0  0  0  0  0  0  0  0
    0.4125    0.8445    0.0000 C   0  0  0  0  0  0  0  0  0  0  0  0
   -0.4125   -0.5844    0.0000 C   0  0  0  0  0  0  0  0  0  0  0  0
   -0.7144    0.5425    0.0000 C   0  0  0  0  0  0  0  0  0  0  0  0
   -1.4289    0.1300    0.0000 C   0  0  0  0  0  0  0  0  0  0  0  0
   -2.1434    0.5425    0.0000 C   0  0  0  0  0  0  0  0  0  0  0  0
   -2.8578    0.1300    0.0000 C   0  0  0  0  0  0  0  0  0  0  0  0
   -2.8578   -0.6950    0.0000 C   0  0  0  0  0  0  0  0  0  0  0  0
   -2.1434   -1.1075    0.0000 C   0  0  0  0  0  0  0  0  0  0  0  0
   -1.4289   -0.6950    0.0000 C   0  0  0  0  0  0  0  0  0  0  0  0
  1  2  1  0  0  0  0
  2  3  1  0  0  0  0
  3  4  1  0  0  0  0
  4  5  1  0  0  0  0
  5  6  1  0  0  0  0
  6  7  1  0  0  0  0
  7  8  1  0  0  0  0
  8  9  1  0  0  0  0
  9 10  1  0  0  0  0
 10 11  1  0  0  0  0
  1 12  1  0  0  0  0
  1 13  1  0  0  0  0
  1 14  1  0  0  0  0
 14 15  1  0  0  0  0
 16 15  1  0  0  0  0
 17 16  2  0  0  0  0
 18 17  1  0  0  0  0
 19 18  2  0  0  0  0
 20 19  1  0  0  0  0
 15 20  2  0  0  0  0
M  CHG  1   1   1
M  END
> <ChemID>
100947

> <CAS>
965-32-2

> <Original_SMILES>
[Cl-].CCCCCCCCCC[N+](C)(C)Cc1ccccc1

> <preferred_name>
Benzyldimethyldecylammonium chloride

> <dsstox_substance_id>
DTXSID7040780

> <dsstox_compound_id>
DTXCID504596

> <qc_level>
DSSTox_High

> <Canonical_QSARr>
CCCCCCCCCC[N+](C)(C)CC1C=CC=CC=1

> <InChI_Code_QSARr>
InChI=1S/C19H34N/c1-4-5-6-7-8-9-10-14-17-20(2,3)18-19-15-12-11-13-16-19/h11-13,15-16H,4-10,14,17-18H2,1-3H3/q+1

> <InChI Key_QSARr>
UARILQSOMYIQCM-UHFFFAOYSA-N

> <Salt_Solvent>
[Cl-]

> <Salt_Solvent_ID>
170

> <MPID>
100945

> <Tr_1_Tst_0>
0

> <Ready_Biodeg>
0.0

$$$$
Row917
  Mrv171c012251911052D          

  7  6  0  0  0  0            999 V2000
    2.0625   -0.7145    0.0000 C   0  0  0  0  0  0  0  0  0  0  0  0
    1.6500    0.0000    0.0000 C   0  0  0  0  0  0  0  0  0  0  0  0
    0.8250    0.0000    0.0000 C   0  0  0  0  0  0  0  0  0  0  0  0
    0.0000    0.0000    0.0000 C   0  0  0  0  0  0  0  0  0  0  0  0
   -0.8250    0.0000    0.0000 C   0  0  0  0  0  0  0  0  0  0  0  0
   -1.2375    0.7145    0.0000 C   0  0  0  0  0  0  0  0  0  0  0  0
   -2.0625    0.7145    0.0000 O   0  0  0  0  0  0  0  0  0  0  0  0
  1  2  1  0  0  0  0
  2  3  1  0  0  0  0
  3  4  3  0  0  0  0
  4  5  1  0  0  0  0
  5  6  1  0  0  0  0
  6  7  1  0  0  0  0
M  END
> <ChemID>
100948

> <CAS>
1002-28-4

> <Original_SMILES>
CCC#CCCO

> <preferred_name>
3-Hexyn-1-ol

> <dsstox_substance_id>
DTXSID4061385

> <dsstox_compound_id>
DTXCID6032481

> <qc_level>
Public_High

> <Canonical_QSARr>
CCC#CCCO

> <InChI_Code_QSARr>
InChI=1S/C6H10O/c1-2-3-4-5-6-7/h7H,2,5-6H2,1H3

> <InChI Key_QSARr>
ODEHKVYXWLXRRR-UHFFFAOYSA-N

> <Salt_Solvent>


> <Salt_Solvent_ID>
0

> <MPID>
100946

> <Tr_1_Tst_0>
1

> <Ready_Biodeg>
1.0

$$$$
Row918
  Mrv171c012251911052D          

  9  9  0  0  0  0            999 V2000
    0.7145    0.0458    0.0000 C   0  0  0  0  0  0  0  0  0  0  0  0
    0.7145   -0.7792    0.0000 C   0  0  0  0  0  0  0  0  0  0  0  0
   -0.0000   -1.1917    0.0000 C   0  0  0  0  0  0  0  0  0  0  0  0
    1.4289    0.4583    0.0000 C   0  0  0  0  0  0  0  0  0  0  0  0
    1.4289    1.2833    0.0000 C   0  0  0  0  0  0  0  0  0  0  0  0
    0.7145    1.6958    0.0000 C   0  0  0  0  0  0  0  0  0  0  0  0
    0.7145    2.5208    0.0000 Cl  0  0  0  0  0  0  0  0  0  0  0  0
   -0.0000    1.2833    0.0000 C   0  0  0  0  0  0  0  0  0  0  0  0
   -0.0000    0.4583    0.0000 C   0  0  0  0  0  0  0  0  0  0  0  0
  1  2  1  0  0  0  0
  2  3  2  0  0  0  0
  4  1  1  0  0  0  0
  5  4  2  0  0  0  0
  6  5  1  0  0  0  0
  6  7  1  0  0  0  0
  8  6  2  0  0  0  0
  9  8  1  0  0  0  0
  1  9  2  0  0  0  0
M  END
> <ChemID>
100950

> <CAS>
1073-67-2

> <Original_SMILES>
C=Cc1ccc(Cl)cc1

> <preferred_name>
Benzene, 1-chloro-4-ethenyl-

> <dsstox_substance_id>
DTXSID4061464

> <dsstox_compound_id>
DTXCID8033069

> <qc_level>
Public_High

> <Canonical_QSARr>
C=CC1C=CC(Cl)=CC=1

> <InChI_Code_QSARr>
InChI=1S/C8H7Cl/c1-2-7-3-5-8(9)6-4-7/h2-6H,1H2

> <InChI Key_QSARr>
KTZVZZJJVJQZHV-UHFFFAOYSA-N

> <Salt_Solvent>


> <Salt_Solvent_ID>
0

> <MPID>
100947

> <Tr_1_Tst_0>
0

> <Ready_Biodeg>
0.0

$$$$
Row919
  Mrv171c012251911052D          

 12 12  0  0  0  0            999 V2000
    0.0000   -0.8250    0.0000 C   0  0  0  0  0  0  0  0  0  0  0  0
    0.0000   -0.0000    0.0000 C   0  0  0  0  0  0  0  0  0  0  0  0
   -0.7145    0.4125    0.0000 C   0  0  0  0  0  0  0  0  0  0  0  0
   -1.4289   -0.0000    0.0000 C   0  0  0  0  0  0  0  0  0  0  0  0
   -1.4289   -0.8250    0.0000 C   0  0  0  0  0  0  0  0  0  0  0  0
   -0.7145   -1.2375    0.0000 C   0  0  0  0  0  0  0  0  0  0  0  0
    0.7145   -1.2375    0.0000 C   0  0  0  0  0  0  0  0  0  0  0  0
    1.4290   -0.8250    0.0000 C   0  0  0  0  0  0  0  0  0  0  0  0
    2.1434   -1.2375    0.0000 C   0  0  0  0  0  0  0  0  0  0  0  0
    2.8579   -0.8250    0.0000 C   0  0  0  0  0  0  0  0  0  0  0  0
    3.5724   -1.2375    0.0000 C   0  0  0  0  0  0  0  0  0  0  0  0
    4.2868   -0.8250    0.0000 C   0  0  0  0  0  0  0  0  0  0  0  0
  2  1  1  0  0  0  0
  3  2  2  0  0  0  0
  4  3  1  0  0  0  0
  5  4  2  0  0  0  0
  6  5  1  0  0  0  0
  1  6  2  0  0  0  0
  1  7  1  0  0  0  0
  7  8  1  0  0  0  0
  8  9  1  0  0  0  0
  9 10  1  0  0  0  0
 10 11  1  0  0  0  0
 11 12  1  0  0  0  0
M  END
> <ChemID>
100951

> <CAS>
1077-16-3

> <Original_SMILES>
CCCCCCc1ccccc1

> <preferred_name>
Benzene, hexyl-

> <dsstox_substance_id>
DTXSID8061476

> <dsstox_compound_id>
DTXCID0033091

> <qc_level>
Public_High

> <Canonical_QSARr>
CCCCCCC1C=CC=CC=1

> <InChI_Code_QSARr>
InChI=1S/C12H18/c1-2-3-4-6-9-12-10-7-5-8-11-12/h5,7-8,10-11H,2-4,6,9H2,1H3

> <InChI Key_QSARr>
LTEQMZWBSYACLV-UHFFFAOYSA-N

> <Salt_Solvent>


> <Salt_Solvent_ID>
0

> <MPID>
100948

> <Tr_1_Tst_0>
1

> <Ready_Biodeg>
1.0

$$$$
Row920
  Mrv171c012251911052D          

 13 12  0  0  0  0            999 V2000
    1.2726   -3.9974    0.0000 O   0  0  0  0  0  0  0  0  0  0  0  0
    1.2726   -3.1724    0.0000 C   0  0  0  0  0  0  0  0  0  0  0  0
    0.5581   -2.7599    0.0000 S   0  0  0  0  0  0  0  0  0  0  0  0
   -0.1564   -3.1724    0.0000 C   0  0  0  0  0  0  0  0  0  0  0  0
   -0.8708   -2.7599    0.0000 C   0  0  0  0  0  0  0  0  0  0  0  0
   -1.5853   -3.1724    0.0000 C   0  0  0  0  0  0  0  0  0  0  0  0
    1.9870   -2.7599    0.0000 N   0  0  0  0  0  0  0  0  0  0  0  0
    1.9870   -1.9349    0.0000 C   0  0  0  0  0  0  0  0  0  0  0  0
    2.7015   -1.5224    0.0000 C   0  0  0  0  0  0  0  0  0  0  0  0
    2.7015   -3.1724    0.0000 C   0  0  0  0  0  0  0  0  0  0  0  0
    3.4160   -2.7599    0.0000 C   0  0  0  0  0  0  0  0  0  0  0  0
    4.1305   -3.1724    0.0000 C   0  0  0  0  0  0  0  0  0  0  0  0
    4.8449   -2.7599    0.0000 C   0  0  0  0  0  0  0  0  0  0  0  0
  1  2  2  0  0  0  0
  2  3  1  0  0  0  0
  3  4  1  0  0  0  0
  4  5  1  0  0  0  0
  5  6  1  0  0  0  0
  2  7  1  0  0  0  0
  7  8  1  0  0  0  0
  8  9  1  0  0  0  0
  7 10  1  0  0  0  0
 10 11  1  0  0  0  0
 11 12  1  0  0  0  0
 12 13  1  0  0  0  0
M  END
> <ChemID>
100952

> <CAS>
1114-71-2

> <Original_SMILES>
CCN(CCCC)C(=O)SCCC

> <preferred_name>
Pebulate

> <dsstox_substance_id>
DTXSID8021199

> <dsstox_compound_id>
DTXCID601199

> <qc_level>
DSSTox_Low

> <Canonical_QSARr>
CCN(CCCC)C(=O)SCCC

> <InChI_Code_QSARr>
InChI=1S/C10H21NOS/c1-4-7-8-11(6-3)10(12)13-9-5-2/h4-9H2,1-3H3

> <InChI Key_QSARr>
SGEJQUSYQTVSIU-UHFFFAOYSA-N

> <Salt_Solvent>


> <Salt_Solvent_ID>
0

> <MPID>
100949

> <Tr_1_Tst_0>
1

> <Ready_Biodeg>
1.0

$$$$
Row921
  Mrv171c012251911052D          

  9  8  0  0  0  0            999 V2000
    2.5412   -2.2425    0.0000 O   0  0  0  0  0  0  0  0  0  0  0  0
    1.8267   -1.8300    0.0000 N   0  0  0  0  0  0  0  0  0  0  0  0
    1.8267   -1.0050    0.0000 N   0  0  0  0  0  0  0  0  0  0  0  0
    1.1123   -0.5925    0.0000 C   0  0  0  0  0  0  0  0  0  0  0  0
    0.3978   -1.0050    0.0000 C   0  0  0  0  0  0  0  0  0  0  0  0
   -0.3167   -0.5925    0.0000 O   0  0  0  0  0  0  0  0  0  0  0  0
    2.5412   -0.5925    0.0000 C   0  0  0  0  0  0  0  0  0  0  0  0
    3.2557   -1.0050    0.0000 C   0  0  0  0  0  0  0  0  0  0  0  0
    3.9702   -0.5925    0.0000 O   0  0  0  0  0  0  0  0  0  0  0  0
  1  2  2  0  0  0  0
  2  3  1  0  0  0  0
  3  4  1  0  0  0  0
  4  5  1  0  0  0  0
  5  6  1  0  0  0  0
  3  7  1  0  0  0  0
  7  8  1  0  0  0  0
  8  9  1  0  0  0  0
M  END
> <ChemID>
100953

> <CAS>
1116-54-7

> <Original_SMILES>
OCCN(CCO)N=O

> <preferred_name>
N-Nitrosodiethanolamine

> <dsstox_substance_id>
DTXSID7021027

> <dsstox_compound_id>
DTXCID501027

> <qc_level>
DSSTox_Low

> <Canonical_QSARr>
OCCN(CCO)N=O

> <InChI_Code_QSARr>
InChI=1S/C4H10N2O3/c7-3-1-6(5-9)2-4-8/h7-8H,1-4H2

> <InChI Key_QSARr>
YFCDLVPYFMHRQZ-UHFFFAOYSA-N

> <Salt_Solvent>


> <Salt_Solvent_ID>
0

> <MPID>
100950

> <Tr_1_Tst_0>
1

> <Ready_Biodeg>
1.0

$$$$
Row922
  Mrv171c012251911052D          

 25 24  0  0  0  0            999 V2000
    4.5696   -2.1173    0.0000 N   0  0  0  0  0  0  0  0  0  0  0  0
    4.5696   -1.2923    0.0000 C   0  0  0  0  0  0  0  0  0  0  0  0
    5.2841   -0.8798    0.0000 C   0  0  0  0  0  0  0  0  0  0  0  0
    5.2841   -0.0548    0.0000 C   0  0  0  0  0  0  0  0  0  0  0  0
    5.9985    0.3577    0.0000 C   0  0  0  0  0  0  0  0  0  0  0  0
    5.9985    1.1827    0.0000 C   0  0  0  0  0  0  0  0  0  0  0  0
    6.7130    1.5952    0.0000 C   0  0  0  0  0  0  0  0  0  0  0  0
    6.7130    2.4202    0.0000 C   0  0  0  0  0  0  0  0  0  0  0  0
    7.4275    2.8327    0.0000 C   0  0  0  0  0  0  0  0  0  0  0  0
    3.8551   -2.5298    0.0000 C   0  0  0  0  0  0  0  0  0  0  0  0
    3.8551   -3.3548    0.0000 C   0  0  0  0  0  0  0  0  0  0  0  0
    3.1407   -3.7673    0.0000 C   0  0  0  0  0  0  0  0  0  0  0  0
    3.1407   -4.5923    0.0000 C   0  0  0  0  0  0  0  0  0  0  0  0
    2.4262   -5.0048    0.0000 C   0  0  0  0  0  0  0  0  0  0  0  0
    2.4262   -5.8298    0.0000 C   0  0  0  0  0  0  0  0  0  0  0  0
    1.7117   -6.2423    0.0000 C   0  0  0  0  0  0  0  0  0  0  0  0
    1.7117   -7.0673    0.0000 C   0  0  0  0  0  0  0  0  0  0  0  0
    5.2841   -2.5298    0.0000 C   0  0  0  0  0  0  0  0  0  0  0  0
    5.2841   -3.3548    0.0000 C   0  0  0  0  0  0  0  0  0  0  0  0
    5.9985   -3.7673    0.0000 C   0  0  0  0  0  0  0  0  0  0  0  0
    5.9985   -4.5923    0.0000 C   0  0  0  0  0  0  0  0  0  0  0  0
    6.7130   -5.0048    0.0000 C   0  0  0  0  0  0  0  0  0  0  0  0
    6.7130   -5.8298    0.0000 C   0  0  0  0  0  0  0  0  0  0  0  0
    7.4275   -6.2423    0.0000 C   0  0  0  0  0  0  0  0  0  0  0  0
    7.4275   -7.0673    0.0000 C   0  0  0  0  0  0  0  0  0  0  0  0
  1  2  1  0  0  0  0
  2  3  1  0  0  0  0
  3  4  1  0  0  0  0
  4  5  1  0  0  0  0
  5  6  1  0  0  0  0
  6  7  1  0  0  0  0
  7  8  1  0  0  0  0
  8  9  1  0  0  0  0
  1 10  1  0  0  0  0
 10 11  1  0  0  0  0
 11 12  1  0  0  0  0
 12 13  1  0  0  0  0
 13 14  1  0  0  0  0
 14 15  1  0  0  0  0
 15 16  1  0  0  0  0
 16 17  1  0  0  0  0
  1 18  1  0  0  0  0
 18 19  1  0  0  0  0
 19 20  1  0  0  0  0
 20 21  1  0  0  0  0
 21 22  1  0  0  0  0
 22 23  1  0  0  0  0
 23 24  1  0  0  0  0
 24 25  1  0  0  0  0
M  END
> <ChemID>
100954

> <CAS>
1116-76-3

> <Original_SMILES>
CCCCCCCCN(CCCCCCCC)CCCCCCCC

> <preferred_name>
Trioctylamine

> <dsstox_substance_id>
DTXSID3047635

> <dsstox_compound_id>
DTXCID1027635

> <qc_level>
DSSTox_Low

> <Canonical_QSARr>
CCCCCCCCN(CCCCCCCC)CCCCCCCC

> <InChI_Code_QSARr>
InChI=1S/C24H51N/c1-4-7-10-13-16-19-22-25(23-20-17-14-11-8-5-2)24-21-18-15-12-9-6-3/h4-24H2,1-3H3

> <InChI Key_QSARr>
XTAZYLNFDRKIHJ-UHFFFAOYSA-N

> <Salt_Solvent>


> <Salt_Solvent_ID>
0

> <MPID>
100951

> <Tr_1_Tst_0>
0

> <Ready_Biodeg>
1.0

$$$$
Row923
  Mrv171c012251911052D          

 23 22  0  0  0  0            999 V2000
  -12.4564   -0.7353    0.0000 O   0  0  0  0  0  0  0  0  0  0  0  0
  -11.7420   -0.3228    0.0000 S   0  0  0  0  0  0  0  0  0  0  0  0
  -11.0275    0.0897    0.0000 O   0  0  0  0  0  0  0  0  0  0  0  0
  -10.3130   -0.3228    0.0000 C   0  0  0  0  0  0  0  0  0  0  0  0
   -9.5986    0.0897    0.0000 C   0  0  0  0  0  0  0  0  0  0  0  0
   -8.8841   -0.3228    0.0000 C   0  0  0  0  0  0  0  0  0  0  0  0
   -8.1696    0.0897    0.0000 C   0  0  0  0  0  0  0  0  0  0  0  0
   -7.4551   -0.3228    0.0000 C   0  0  0  0  0  0  0  0  0  0  0  0
   -6.7407    0.0897    0.0000 C   0  0  0  0  0  0  0  0  0  0  0  0
   -6.0262   -0.3228    0.0000 C   0  0  0  0  0  0  0  0  0  0  0  0
   -5.3117    0.0897    0.0000 C   0  0  0  0  0  0  0  0  0  0  0  0
   -4.5973   -0.3228    0.0000 C   0  0  0  0  0  0  0  0  0  0  0  0
   -3.8828    0.0897    0.0000 C   0  0  0  0  0  0  0  0  0  0  0  0
   -3.1683   -0.3228    0.0000 C   0  0  0  0  0  0  0  0  0  0  0  0
   -2.4539    0.0897    0.0000 C   0  0  0  0  0  0  0  0  0  0  0  0
   -1.7394   -0.3228    0.0000 C   0  0  0  0  0  0  0  0  0  0  0  0
   -1.0249    0.0897    0.0000 C   0  0  0  0  0  0  0  0  0  0  0  0
   -0.3104   -0.3228    0.0000 C   0  0  0  0  0  0  0  0  0  0  0  0
    0.4040    0.0897    0.0000 C   0  0  0  0  0  0  0  0  0  0  0  0
    1.1185   -0.3228    0.0000 C   0  0  0  0  0  0  0  0  0  0  0  0
    1.8330    0.0897    0.0000 C   0  0  0  0  0  0  0  0  0  0  0  0
  -11.3295   -1.0373    0.0000 O   0  0  0  0  0  0  0  0  0  0  0  0
  -12.1545    0.3917    0.0000 O   0  0  0  0  0  0  0  0  0  0  0  0
  1  2  1  0  0  0  0
  2  3  1  0  0  0  0
  3  4  1  0  0  0  0
  4  5  1  0  0  0  0
  5  6  1  0  0  0  0
  6  7  1  0  0  0  0
  7  8  1  0  0  0  0
  8  9  1  0  0  0  0
  9 10  1  0  0  0  0
 10 11  1  0  0  0  0
 11 12  1  0  0  0  0
 12 13  1  0  0  0  0
 13 14  1  0  0  0  0
 14 15  1  0  0  0  0
 15 16  1  0  0  0  0
 16 17  1  0  0  0  0
 17 18  1  0  0  0  0
 18 19  1  0  0  0  0
 19 20  1  0  0  0  0
 20 21  1  0  0  0  0
  2 22  2  0  0  0  0
  2 23  2  0  0  0  0
M  END
> <ChemID>
100955

> <CAS>
1120-04-3

> <Original_SMILES>
[Na+].CCCCCCCCCCCCCCCCCCOS([O-])(=O)=O

> <preferred_name>
Octadecyl sulfate sodium salt

> <dsstox_substance_id>
DTXSID6047103

> <dsstox_compound_id>
DTXCID4027103

> <qc_level>
DSSTox_Low

> <Canonical_QSARr>
CCCCCCCCCCCCCCCCCCOS(O)(=O)=O

> <InChI_Code_QSARr>
InChI=1S/C18H38O4S/c1-2-3-4-5-6-7-8-9-10-11-12-13-14-15-16-17-18-22-23(19,20)21/h2-18H2,1H3,(H,19,20,21)

> <InChI Key_QSARr>
HVWGGPRWKSHASF-UHFFFAOYSA-N

> <Salt_Solvent>
[Na+]

> <Salt_Solvent_ID>
110

> <MPID>
100952

> <Tr_1_Tst_0>
1

> <Ready_Biodeg>
1.0

$$$$
Row924
  Mrv171c012251911052D          

 11 10  0  0  0  0            999 V2000
   -0.0041   -0.0383    0.0000 C   0  0  0  0  0  0  0  0  0  0  0  0
    0.7104   -0.4508    0.0000 C   0  0  0  0  0  0  0  0  0  0  0  0
    1.4248   -0.0383    0.0000 C   0  0  0  0  0  0  0  0  0  0  0  0
    2.1393   -0.4508    0.0000 C   0  0  0  0  0  0  0  0  0  0  0  0
    2.8538   -0.0383    0.0000 C   0  0  0  0  0  0  0  0  0  0  0  0
    3.5682   -0.4508    0.0000 C   0  0  0  0  0  0  0  0  0  0  0  0
    4.2827   -0.0383    0.0000 C   0  0  0  0  0  0  0  0  0  0  0  0
    4.9972   -0.4508    0.0000 C   0  0  0  0  0  0  0  0  0  0  0  0
    5.7117   -0.0383    0.0000 C   0  0  0  0  0  0  0  0  0  0  0  0
    6.4261   -0.4508    0.0000 C   0  0  0  0  0  0  0  0  0  0  0  0
    7.1406   -0.0383    0.0000 C   0  0  0  0  0  0  0  0  0  0  0  0
  1  2  1  0  0  0  0
  2  3  1  0  0  0  0
  3  4  1  0  0  0  0
  4  5  1  0  0  0  0
  5  6  1  0  0  0  0
  6  7  1  0  0  0  0
  7  8  1  0  0  0  0
  8  9  1  0  0  0  0
  9 10  1  0  0  0  0
 10 11  1  0  0  0  0
M  END
> <ChemID>
100956

> <CAS>
1120-21-4

> <Original_SMILES>
CCCCCCCCCCC

> <preferred_name>
Undecane

> <dsstox_substance_id>
DTXSID9021689

> <dsstox_compound_id>
DTXCID301689

> <qc_level>
DSSTox_High

> <Canonical_QSARr>
CCCCCCCCCCC

> <InChI_Code_QSARr>
InChI=1S/C11H24/c1-3-5-7-9-11-10-8-6-4-2/h3-11H2,1-2H3

> <InChI Key_QSARr>
RSJKGSCJYJTIGS-UHFFFAOYSA-N

> <Salt_Solvent>


> <Salt_Solvent_ID>
0

> <MPID>
100953

> <Tr_1_Tst_0>
1

> <Ready_Biodeg>
1.0

$$$$
Row925
  Mrv171c012251911052D          

 12 12  0  0  0  0            999 V2000
    2.2500   -4.3970    0.0000 C   0  0  0  0  0  0  0  0  0  0  0  0
    1.5355   -3.9845    0.0000 C   0  0  0  0  0  0  0  0  0  0  0  0
    1.5355   -3.1595    0.0000 C   0  0  0  0  0  0  0  0  0  0  0  0
    0.8211   -2.7470    0.0000 C   0  0  0  0  0  0  0  0  0  0  0  0
    0.8211   -1.9220    0.0000 O   0  0  0  0  0  0  0  0  0  0  0  0
    0.1066   -1.5095    0.0000 C   0  0  0  0  0  0  0  0  0  0  0  0
   -0.6079   -1.9220    0.0000 O   0  0  0  0  0  0  0  0  0  0  0  0
    0.1066   -0.6845    0.0000 N   0  0  0  0  0  0  0  0  0  0  0  0
   -0.6079   -0.2720    0.0000 C   0  0  0  0  0  0  0  0  0  0  0  0
    0.1066   -3.1595    0.0000 C   0  0  0  0  0  0  0  0  0  0  0  0
    0.1066   -3.9845    0.0000 C   0  0  0  0  0  0  0  0  0  0  0  0
    0.8211   -4.3970    0.0000 C   0  0  0  0  0  0  0  0  0  0  0  0
  1  2  1  0  0  0  0
  3  2  2  0  0  0  0
  4  3  1  0  0  0  0
  4  5  1  0  0  0  0
  5  6  1  0  0  0  0
  6  7  1  0  0  0  0
  6  8  2  0  0  0  0
  8  9  1  0  0  0  0
 10  4  2  0  0  0  0
 11 10  1  0  0  0  0
 12 11  2  0  0  0  0
  2 12  1  0  0  0  0
M  END
> <ChemID>
100957

> <CAS>
1129-41-5

> <Original_SMILES>
Cc1cc(ccc1)OC(O)=NC

> <preferred_name>
Metolcarb

> <dsstox_substance_id>
DTXSID8057938

> <dsstox_compound_id>
DTXCID6031706

> <qc_level>
DSSTox_High

> <Canonical_QSARr>
CC1C=CC=C(C=1)O/C(/O)=N/C

> <InChI_Code_QSARr>
InChI=1S/C9H11NO2/c1-7-4-3-5-8(6-7)12-9(11)10-2/h3-6H,1-2H3,(H,10,11)

> <InChI Key_QSARr>
VOEYXMAFNDNNED-UHFFFAOYSA-N

> <Salt_Solvent>


> <Salt_Solvent_ID>
0

> <MPID>
100954

> <Tr_1_Tst_0>
1

> <Ready_Biodeg>
0.0

$$$$
Row926
  Mrv171c012251911052D          

 14 14  0  0  0  0            999 V2000
    3.0417   -1.3774    0.0000 C   0  0  0  0  0  0  0  0  0  0  0  0
    2.2167   -1.3774    0.0000 N   0  0  0  0  0  0  0  0  0  0  0  0
    1.8042   -0.6629    0.0000 C   0  0  0  0  0  0  0  0  0  0  0  0
    2.2167    0.0516    0.0000 C   0  0  0  0  0  0  0  0  0  0  0  0
    1.8042   -2.0919    0.0000 C   0  0  0  0  0  0  0  0  0  0  0  0
    0.9792   -2.0919    0.0000 C   0  0  0  0  0  0  0  0  0  0  0  0
    0.5667   -2.8063    0.0000 C   0  0  0  0  0  0  0  0  0  0  0  0
    0.9792   -3.5208    0.0000 C   0  0  0  0  0  0  0  0  0  0  0  0
    1.8042   -3.5208    0.0000 C   0  0  0  0  0  0  0  0  0  0  0  0
    2.2167   -2.8063    0.0000 C   0  0  0  0  0  0  0  0  0  0  0  0
    3.4542   -0.6629    0.0000 S   0  0  0  0  0  0  0  0  0  0  0  0
    4.2792   -0.6629    0.0000 C   0  0  0  0  0  0  0  0  0  0  0  0
    4.6917    0.0516    0.0000 C   0  0  0  0  0  0  0  0  0  0  0  0
    3.4542   -2.0919    0.0000 O   0  0  0  0  0  0  0  0  0  0  0  0
  1  2  1  0  0  0  0
  2  3  1  0  0  0  0
  3  4  1  0  0  0  0
  2  5  1  0  0  0  0
  6  5  1  0  0  0  0
  7  6  1  0  0  0  0
  8  7  1  0  0  0  0
  9  8  1  0  0  0  0
 10  9  1  0  0  0  0
  5 10  1  0  0  0  0
  1 11  1  0  0  0  0
 11 12  1  0  0  0  0
 12 13  1  0  0  0  0
  1 14  2  0  0  0  0
M  END
> <ChemID>
100958

> <CAS>
1134-23-2

> <Original_SMILES>
CCN(C1CCCCC1)C(=O)SCC

> <preferred_name>
Cycloate

> <dsstox_substance_id>
DTXSID6032356

> <dsstox_compound_id>
DTXCID4012356

> <qc_level>
DSSTox_Low

> <Canonical_QSARr>
CCN(C1CCCCC1)C(=O)SCC

> <InChI_Code_QSARr>
InChI=1S/C11H21NOS/c1-3-12(11(13)14-4-2)10-8-6-5-7-9-10/h10H,3-9H2,1-2H3

> <InChI Key_QSARr>
DFCAFRGABIXSDS-UHFFFAOYSA-N

> <Salt_Solvent>


> <Salt_Solvent_ID>
0

> <MPID>
100955

> <Tr_1_Tst_0>
1

> <Ready_Biodeg>
0.0

$$$$
Row927
  Mrv171c012251911052D          

 14 14  0  0  0  0            999 V2000
    0.0000    2.4750    0.0000 C   0  0  0  0  0  0  0  0  0  0  0  0
    0.7145    2.0625    0.0000 O   0  0  0  0  0  0  0  0  0  0  0  0
    0.7145    1.2375    0.0000 C   0  0  0  0  0  0  0  0  0  0  0  0
    1.4289    0.8250    0.0000 C   0  0  0  0  0  0  0  0  0  0  0  0
    1.4289   -0.0000    0.0000 C   0  0  0  0  0  0  0  0  0  0  0  0
    2.1434   -0.4125    0.0000 C   0  0  0  0  0  0  0  0  0  0  0  0
    2.1434   -1.2375    0.0000 C   0  0  0  0  0  0  0  0  0  0  0  0
    2.8579   -1.6500    0.0000 C   0  0  0  0  0  0  0  0  0  0  0  0
    3.5724   -1.2375    0.0000 O   0  0  0  0  0  0  0  0  0  0  0  0
    2.8579   -2.4750    0.0000 O   0  0  0  0  0  0  0  0  0  0  0  0
    0.7145   -0.4125    0.0000 C   0  0  0  0  0  0  0  0  0  0  0  0
    0.0000    0.0000    0.0000 C   0  0  0  0  0  0  0  0  0  0  0  0
    0.0000    0.8250    0.0000 C   0  0  0  0  0  0  0  0  0  0  0  0
   -0.7145    1.2375    0.0000 O   0  0  0  0  0  0  0  0  0  0  0  0
  1  2  1  0  0  0  0
  2  3  1  0  0  0  0
  3  4  1  0  0  0  0
  4  5  2  0  0  0  0
  6  5  1  4  0  0  0
  6  7  2  0  0  0  0
  7  8  1  0  0  0  0
  8  9  1  0  0  0  0
  8 10  2  0  0  0  0
  5 11  1  0  0  0  0
 11 12  2  0  0  0  0
 12 13  1  0  0  0  0
  3 13  2  0  0  0  0
 13 14  1  0  0  0  0
M  END
> <ChemID>
100959

> <CAS>
1135-24-6

> <Original_SMILES>
COc1cc(C=CC(O)=O)ccc1O

> <preferred_name>
Ferulic acid

> <dsstox_substance_id>
DTXSID5040673

> <dsstox_compound_id>
DTXCID3020673

> <qc_level>
DSSTox_High

> <Canonical_QSARr>
COC1C=C(C=CC(O)=O)C=CC=1O

> <InChI_Code_QSARr>
InChI=1S/C10H10O4/c1-14-9-6-7(2-4-8(9)11)3-5-10(12)13/h2-6,11H,1H3,(H,12,13)

> <InChI Key_QSARr>
KSEBMYQBYZTDHS-UHFFFAOYSA-N

> <Salt_Solvent>


> <Salt_Solvent_ID>
0

> <MPID>
100956

> <Tr_1_Tst_0>
0

> <Ready_Biodeg>
1.0

$$$$
Row928
  Mrv171c012251911052D          

 16 17  0  0  0  0            999 V2000
    2.8692   -1.2402    0.0000 C   0  0  0  0  0  0  0  0  0  0  0  0
    2.1548   -0.8277    0.0000 C   0  0  0  0  0  0  0  0  0  0  0  0
    1.4403   -1.2402    0.0000 C   0  0  0  0  0  0  0  0  0  0  0  0
    0.7258   -0.8277    0.0000 C   0  0  0  0  0  0  0  0  0  0  0  0
    0.0114   -1.2402    0.0000 O   0  0  0  0  0  0  0  0  0  0  0  0
    0.7258   -0.0027    0.0000 O   0  0  0  0  0  0  0  0  0  0  0  0
    1.4403   -2.0652    0.0000 C   0  0  0  0  0  0  0  0  0  0  0  0
    2.1548   -2.4777    0.0000 C   0  0  0  0  0  0  0  0  0  0  0  0
    2.8692   -2.0652    0.0000 C   0  0  0  0  0  0  0  0  0  0  0  0
    3.5837   -2.4777    0.0000 C   0  0  0  0  0  0  0  0  0  0  0  0
    4.2982   -2.0652    0.0000 C   0  0  0  0  0  0  0  0  0  0  0  0
    5.0127   -2.4777    0.0000 C   0  0  0  0  0  0  0  0  0  0  0  0
    5.7271   -2.0652    0.0000 O   0  0  0  0  0  0  0  0  0  0  0  0
    5.0127   -3.3027    0.0000 O   0  0  0  0  0  0  0  0  0  0  0  0
    4.2982   -1.2402    0.0000 C   0  0  0  0  0  0  0  0  0  0  0  0
    3.5837   -0.8277    0.0000 C   0  0  0  0  0  0  0  0  0  0  0  0
  2  1  1  0  0  0  0
  3  2  2  0  0  0  0
  3  4  1  0  0  0  0
  4  5  1  0  0  0  0
  4  6  2  0  0  0  0
  7  3  1  0  0  0  0
  8  7  2  0  0  0  0
  9  8  1  0  0  0  0
  9  1  2  0  0  0  0
 10  9  1  0  0  0  0
 11 10  2  0  0  0  0
 11 12  1  0  0  0  0
 12 13  1  0  0  0  0
 12 14  2  0  0  0  0
 15 11  1  0  0  0  0
 16 15  2  0  0  0  0
  1 16  1  0  0  0  0
M  END
> <ChemID>
100960

> <CAS>
1141-38-4

> <Original_SMILES>
OC(=O)c1cc2ccc(cc2cc1)C(O)=O

> <preferred_name>
2,6-Naphthalenedicarboxylic acid

> <dsstox_substance_id>
DTXSID5029211

> <dsstox_compound_id>
DTXCID009211

> <qc_level>
DSSTox_Low

> <Canonical_QSARr>
OC(=O)C1=CC2C=CC(=CC=2C=C1)C(O)=O

> <InChI_Code_QSARr>
InChI=1S/C12H8O4/c13-11(14)9-3-1-7-5-10(12(15)16)4-2-8(7)6-9/h1-6H,(H,13,14)(H,15,16)

> <InChI Key_QSARr>
RXOHFPCZGPKIRD-UHFFFAOYSA-N

> <Salt_Solvent>


> <Salt_Solvent_ID>
0

> <MPID>
100957

> <Tr_1_Tst_0>
1

> <Ready_Biodeg>
0.0

$$$$
Row929
  Mrv171c012251911052D          

 23 24  0  0  0  0            999 V2000
    3.1269   -1.0344    0.0000 Br  0  0  0  0  0  0  0  0  0  0  0  0
    2.4125   -1.4469    0.0000 C   0  0  0  0  0  0  0  0  0  0  0  0
    1.6980   -1.0344    0.0000 C   0  0  0  0  0  0  0  0  0  0  0  0
    1.6980   -0.2094    0.0000 Br  0  0  0  0  0  0  0  0  0  0  0  0
    0.9835   -1.4469    0.0000 C   0  0  0  0  0  0  0  0  0  0  0  0
    0.2691   -1.0344    0.0000 Br  0  0  0  0  0  0  0  0  0  0  0  0
    0.9835   -2.2719    0.0000 C   0  0  0  0  0  0  0  0  0  0  0  0
    0.2691   -2.6844    0.0000 Br  0  0  0  0  0  0  0  0  0  0  0  0
    1.6980   -2.6844    0.0000 C   0  0  0  0  0  0  0  0  0  0  0  0
    1.6980   -3.5094    0.0000 Br  0  0  0  0  0  0  0  0  0  0  0  0
    2.4125   -2.2719    0.0000 C   0  0  0  0  0  0  0  0  0  0  0  0
    3.1269   -2.6844    0.0000 O   0  0  0  0  0  0  0  0  0  0  0  0
    3.8414   -2.2719    0.0000 C   0  0  0  0  0  0  0  0  0  0  0  0
    4.5559   -2.6844    0.0000 C   0  0  0  0  0  0  0  0  0  0  0  0
    4.5559   -3.5094    0.0000 Br  0  0  0  0  0  0  0  0  0  0  0  0
    5.2704   -2.2719    0.0000 C   0  0  0  0  0  0  0  0  0  0  0  0
    5.9848   -2.6844    0.0000 Br  0  0  0  0  0  0  0  0  0  0  0  0
    5.2704   -1.4469    0.0000 C   0  0  0  0  0  0  0  0  0  0  0  0
    5.9848   -1.0344    0.0000 Br  0  0  0  0  0  0  0  0  0  0  0  0
    4.5559   -1.0344    0.0000 C   0  0  0  0  0  0  0  0  0  0  0  0
    4.5559   -0.2094    0.0000 Br  0  0  0  0  0  0  0  0  0  0  0  0
    3.8414   -1.4469    0.0000 C   0  0  0  0  0  0  0  0  0  0  0  0
    3.5059   -0.6932    0.0000 Br  0  0  0  0  0  0  0  0  0  0  0  0
  1  2  1  0  0  0  0
  3  2  1  0  0  0  0
  3  4  1  0  0  0  0
  5  3  2  0  0  0  0
  5  6  1  0  0  0  0
  7  5  1  0  0  0  0
  7  8  1  0  0  0  0
  9  7  2  0  0  0  0
  9 10  1  0  0  0  0
 11  9  1  0  0  0  0
  2 11  2  0  0  0  0
 11 12  1  0  0  0  0
 12 13  1  0  0  0  0
 14 13  1  0  0  0  0
 14 15  1  0  0  0  0
 16 14  2  0  0  0  0
 16 17  1  0  0  0  0
 18 16  1  0  0  0  0
 18 19  1  0  0  0  0
 20 18  2  0  0  0  0
 20 21  1  0  0  0  0
 22 20  1  0  0  0  0
 13 22  2  0  0  0  0
 22 23  1  0  0  0  0
M  END
> <ChemID>
100961

> <CAS>
1163-19-5

> <Original_SMILES>
Brc1c(Oc2c(Br)c(Br)c(Br)c(Br)c2Br)c(Br)c(Br)c(Br)c1Br

> <preferred_name>
Decabromodiphenyl oxide

> <dsstox_substance_id>
DTXSID9020376

> <dsstox_compound_id>
DTXCID50376

> <qc_level>
DSSTox_Low

> <Canonical_QSARr>
BrC1C(OC2=C(Br)C(Br)=C(Br)C(Br)=C2Br)=C(Br)C(Br)=C(Br)C=1Br

> <InChI_Code_QSARr>
InChI=1S/C12Br10O/c13-1-3(15)7(19)11(8(20)4(1)16)23-12-9(21)5(17)2(14)6(18)10(12)22

> <InChI Key_QSARr>
WHHGLZMJPXIBIX-UHFFFAOYSA-N

> <Salt_Solvent>


> <Salt_Solvent_ID>
0

> <MPID>
100958

> <Tr_1_Tst_0>
1

> <Ready_Biodeg>
0.0

$$$$
Row930
  Mrv171c012251911052D          

 16 17  0  0  0  0            999 V2000
    2.4129   -1.1875    0.0000 S   0  0  0  0  0  0  0  0  0  0  0  0
    3.1274   -0.7750    0.0000 C   0  0  0  0  0  0  0  0  0  0  0  0
    3.8418   -1.1875    0.0000 N   0  0  0  0  0  0  0  0  0  0  0  0
    3.8418   -2.0125    0.0000 C   0  0  0  0  0  0  0  0  0  0  0  0
    3.1274   -2.4250    0.0000 C   0  0  0  0  0  0  0  0  0  0  0  0
    3.1274   -3.2500    0.0000 C   0  0  0  0  0  0  0  0  0  0  0  0
    3.8418   -3.6625    0.0000 C   0  0  0  0  0  0  0  0  0  0  0  0
    4.5563   -3.2500    0.0000 C   0  0  0  0  0  0  0  0  0  0  0  0
    4.5563   -2.4250    0.0000 C   0  0  0  0  0  0  0  0  0  0  0  0
    3.1274    0.0500    0.0000 N   0  0  0  0  0  0  0  0  0  0  0  0
    2.4129    0.4625    0.0000 C   0  0  0  0  0  0  0  0  0  0  0  0
    2.4129    1.2875    0.0000 C   0  0  0  0  0  0  0  0  0  0  0  0
    1.6984    1.7000    0.0000 C   0  0  0  0  0  0  0  0  0  0  0  0
    0.9839    1.2875    0.0000 C   0  0  0  0  0  0  0  0  0  0  0  0
    0.9839    0.4625    0.0000 C   0  0  0  0  0  0  0  0  0  0  0  0
    1.6984    0.0500    0.0000 C   0  0  0  0  0  0  0  0  0  0  0  0
  1  2  2  0  0  0  0
  2  3  1  0  0  0  0
  3  4  1  0  0  0  0
  5  4  1  0  0  0  0
  6  5  1  0  0  0  0
  7  6  1  0  0  0  0
  8  7  1  0  0  0  0
  9  8  1  0  0  0  0
  4  9  1  0  0  0  0
  2 10  1  0  0  0  0
 10 11  1  0  0  0  0
 12 11  1  0  0  0  0
 13 12  1  0  0  0  0
 14 13  1  0  0  0  0
 15 14  1  0  0  0  0
 16 15  1  0  0  0  0
 11 16  1  0  0  0  0
M  END
> <ChemID>
100962

> <CAS>
1212-29-9

> <Original_SMILES>
S=C(NC1CCCCC1)NC1CCCCC1

> <preferred_name>
N,N'-Dicyclohexylthiourea

> <dsstox_substance_id>
DTXSID9020451

> <dsstox_compound_id>
DTXCID70451

> <qc_level>
DSSTox_Low

> <Canonical_QSARr>
S=C(NC1CCCCC1)NC1CCCCC1

> <InChI_Code_QSARr>
InChI=1S/C13H24N2S/c16-13(14-11-7-3-1-4-8-11)15-12-9-5-2-6-10-12/h11-12H,1-10H2,(H2,14,15,16)

> <InChI Key_QSARr>
KAJICSGLHKRDLN-UHFFFAOYSA-N

> <Salt_Solvent>


> <Salt_Solvent_ID>
0

> <MPID>
100959

> <Tr_1_Tst_0>
1

> <Ready_Biodeg>
0.0

$$$$
Row931
  Mrv171c012251911052D          

 25 26  0  0  0  0            999 V2000
    3.1872   -2.3886    0.0000 O   0  0  0  0  0  0  0  0  0  0  0  0
    3.9017   -2.8011    0.0000 P   0  0  0  0  0  0  0  0  0  0  0  0
    3.4892   -3.5156    0.0000 O   0  0  0  0  0  0  0  0  0  0  0  0
    2.6642   -3.5156    0.0000 C   0  0  0  0  0  0  0  0  0  0  0  0
    2.2517   -2.8011    0.0000 C   0  0  0  0  0  0  0  0  0  0  0  0
    1.4267   -2.8011    0.0000 C   0  0  0  0  0  0  0  0  0  0  0  0
    1.0142   -2.0866    0.0000 C   0  0  0  0  0  0  0  0  0  0  0  0
    0.1892   -2.0866    0.0000 C   0  0  0  0  0  0  0  0  0  0  0  0
   -0.2233   -1.3722    0.0000 C   0  0  0  0  0  0  0  0  0  0  0  0
    2.6642   -2.0866    0.0000 C   0  0  0  0  0  0  0  0  0  0  0  0
    2.2517   -1.3722    0.0000 C   0  0  0  0  0  0  0  0  0  0  0  0
    4.3142   -2.0866    0.0000 O   0  0  0  0  0  0  0  0  0  0  0  0
    3.9017   -1.3722    0.0000 C   0  0  0  0  0  0  0  0  0  0  0  0
    4.3142   -0.6577    0.0000 C   0  0  0  0  0  0  0  0  0  0  0  0
    3.9017    0.0568    0.0000 C   0  0  0  0  0  0  0  0  0  0  0  0
    3.0767    0.0568    0.0000 C   0  0  0  0  0  0  0  0  0  0  0  0
    2.6642   -0.6577    0.0000 C   0  0  0  0  0  0  0  0  0  0  0  0
    3.0767   -1.3722    0.0000 C   0  0  0  0  0  0  0  0  0  0  0  0
    4.6161   -3.2136    0.0000 O   0  0  0  0  0  0  0  0  0  0  0  0
    4.6161   -4.0386    0.0000 C   0  0  0  0  0  0  0  0  0  0  0  0
    3.9017   -4.4511    0.0000 C   0  0  0  0  0  0  0  0  0  0  0  0
    3.9017   -5.2761    0.0000 C   0  0  0  0  0  0  0  0  0  0  0  0
    4.6161   -5.6886    0.0000 C   0  0  0  0  0  0  0  0  0  0  0  0
    5.3306   -5.2761    0.0000 C   0  0  0  0  0  0  0  0  0  0  0  0
    5.3306   -4.4511    0.0000 C   0  0  0  0  0  0  0  0  0  0  0  0
  1  2  2  0  0  0  0
  2  3  1  0  0  0  0
  3  4  1  0  0  0  0
  4  5  1  0  0  0  0
  5  6  1  0  0  0  0
  6  7  1  0  0  0  0
  7  8  1  0  0  0  0
  8  9  1  0  0  0  0
  5 10  1  0  0  0  0
 10 11  1  0  0  0  0
  2 12  1  0  0  0  0
 12 13  1  0  0  0  0
 14 13  1  0  0  0  0
 15 14  2  0  0  0  0
 16 15  1  0  0  0  0
 17 16  2  0  0  0  0
 18 17  1  0  0  0  0
 13 18  2  0  0  0  0
  2 19  1  0  0  0  0
 19 20  1  0  0  0  0
 21 20  1  0  0  0  0
 22 21  2  0  0  0  0
 23 22  1  0  0  0  0
 24 23  2  0  0  0  0
 25 24  1  0  0  0  0
 20 25  2  0  0  0  0
M  END
> <ChemID>
100963

> <CAS>
1241-94-7

> <Original_SMILES>
CCC(COP(=O)(Oc1ccccc1)Oc1ccccc1)CCCC

> <preferred_name>
2-Ethylhexyl diphenyl phosphate

> <dsstox_substance_id>
DTXSID1025300

> <dsstox_compound_id>
DTXCID105300

> <qc_level>
DSSTox_High

> <Canonical_QSARr>
CCC(COP(=O)(OC1C=CC=CC=1)OC1C=CC=CC=1)CCCC

> <InChI_Code_QSARr>
InChI=1S/C20H27O4P/c1-3-5-12-18(4-2)17-22-25(21,23-19-13-8-6-9-14-19)24-20-15-10-7-11-16-20/h6-11,13-16,18H,3-5,12,17H2,1-2H3

> <InChI Key_QSARr>
CGSLYBDCEGBZCG-UHFFFAOYSA-N

> <Salt_Solvent>


> <Salt_Solvent_ID>
0

> <MPID>
100960

> <Tr_1_Tst_0>
0

> <Ready_Biodeg>
0.0

$$$$
Row932
  Mrv171c012251911052D          

 30 30  0  0  0  0            999 V2000
   -4.0183   -1.8406    0.0000 C   0  0  0  0  0  0  0  0  0  0  0  0
   -4.0183   -2.6656    0.0000 C   0  0  0  0  0  0  0  0  0  0  0  0
   -3.3038   -3.0781    0.0000 C   0  0  0  0  0  0  0  0  0  0  0  0
   -3.3038   -3.9031    0.0000 C   0  0  0  0  0  0  0  0  0  0  0  0
   -2.5893   -4.3156    0.0000 C   0  0  0  0  0  0  0  0  0  0  0  0
   -2.5893   -5.1406    0.0000 C   0  0  0  0  0  0  0  0  0  0  0  0
   -1.8748   -5.5531    0.0000 C   0  0  0  0  0  0  0  0  0  0  0  0
   -1.8748   -6.3781    0.0000 C   0  0  0  0  0  0  0  0  0  0  0  0
   -1.1604   -6.7906    0.0000 C   0  0  0  0  0  0  0  0  0  0  0  0
   -1.1604   -7.6156    0.0000 C   0  0  0  0  0  0  0  0  0  0  0  0
   -0.4459   -8.0281    0.0000 C   0  0  0  0  0  0  0  0  0  0  0  0
    0.2686   -7.6156    0.0000 C   0  0  0  0  0  0  0  0  0  0  0  0
    0.9830   -8.0281    0.0000 C   0  0  0  0  0  0  0  0  0  0  0  0
    1.6975   -7.6156    0.0000 C   0  0  0  0  0  0  0  0  0  0  0  0
    2.4120   -8.0281    0.0000 C   0  0  0  0  0  0  0  0  0  0  0  0
    3.1264   -7.6156    0.0000 C   0  0  0  0  0  0  0  0  0  0  0  0
    3.8409   -8.0281    0.0000 C   0  0  0  0  0  0  0  0  0  0  0  0
    4.5554   -7.6156    0.0000 C   0  0  0  0  0  0  0  0  0  0  0  0
    4.5554   -6.7906    0.0000 O   0  0  0  0  0  0  0  0  0  0  0  0
    5.2699   -8.0281    0.0000 O   0  0  0  0  0  0  0  0  0  0  0  0
    5.9843   -7.6156    0.0000 C   0  0  0  0  0  0  0  0  0  0  0  0
    6.6988   -8.0281    0.0000 C   0  0  0  0  0  0  0  0  0  0  0  0
    6.6988   -8.8531    0.0000 O   0  0  0  0  0  0  0  0  0  0  0  0
    7.4133   -7.6156    0.0000 C   0  0  0  0  0  0  0  0  0  0  0  0
    7.4995   -6.7952    0.0000 O   0  0  0  0  0  0  0  0  0  0  0  0
    8.3065   -6.6236    0.0000 C   0  0  0  0  0  0  0  0  0  0  0  0
    8.7190   -7.3381    0.0000 C   0  0  0  0  0  0  0  0  0  0  0  0
    9.5395   -7.4243    0.0000 O   0  0  0  0  0  0  0  0  0  0  0  0
    8.1669   -7.9512    0.0000 C   0  0  0  0  0  0  0  0  0  0  0  0
    8.3385   -8.7582    0.0000 O   0  0  0  0  0  0  0  0  0  0  0  0
  1  2  1  0  0  0  0
  2  3  1  0  0  0  0
  3  4  1  0  0  0  0
  4  5  1  0  0  0  0
  5  6  1  0  0  0  0
  6  7  1  0  0  0  0
  7  8  1  0  0  0  0
  9  8  1  4  0  0  0
  9 10  2  0  0  0  0
 10 11  1  0  0  0  0
 11 12  1  0  0  0  0
 12 13  1  0  0  0  0
 13 14  1  0  0  0  0
 14 15  1  0  0  0  0
 15 16  1  0  0  0  0
 16 17  1  0  0  0  0
 17 18  1  0  0  0  0
 18 19  2  0  0  0  0
 18 20  1  0  0  0  0
 20 21  1  0  0  0  0
 21 22  1  0  0  0  0
 22 23  1  0  0  0  0
 22 24  1  0  0  0  0
 24 25  1  0  0  0  0
 25 26  1  0  0  0  0
 26 27  1  0  0  0  0
 27 28  1  0  0  0  0
 27 29  1  0  0  0  0
 24 29  1  0  0  0  0
 29 30  1  0  0  0  0
M  END
> <ChemID>
100967

> <CAS>
1338-43-8

> <Original_SMILES>
CCCCCCCC/C=C\CCCCCCCC(=O)OC[C@@H](O)[C@H]1OC[C@H](O)[C@H]1O

> <preferred_name>
Sorbitan, mono-(9Z)-9-octadecenoate

> <dsstox_substance_id>
DTXSID6027397

> <dsstox_compound_id>
DTXCID807397

> <qc_level>
DSSTox_High

> <Canonical_QSARr>
CCCCCCCCC=CCCCCCCCC(=O)OCC(O)C1OCC(O)C1O

> <InChI_Code_QSARr>
InChI=1S/C24H44O6/c1-2-3-4-5-6-7-8-9-10-11-12-13-14-15-16-17-22(27)29-19-21(26)24-23(28)20(25)18-30-24/h9-10,20-21,23-26,28H,2-8,11-19H2,1H3

> <InChI Key_QSARr>
NWGKJDSIEKMTRX-UHFFFAOYSA-N

> <Salt_Solvent>


> <Salt_Solvent_ID>
0

> <MPID>
100961

> <Tr_1_Tst_0>
1

> <Ready_Biodeg>
1.0

$$$$
Row933
  Mrv171c012251911052D          

 18 17  0  0  0  0            999 V2000
    0.7027    0.0003    0.0000 C   0  0  0  0  0  0  0  0  0  0  0  0
   -0.0117   -0.4122    0.0000 C   0  0  0  0  0  0  0  0  0  0  0  0
    1.4172   -0.4122    0.0000 C   0  0  0  0  0  0  0  0  0  0  0  0
    2.1317    0.0003    0.0000 C   0  0  0  0  0  0  0  0  0  0  0  0
    2.8462   -0.4122    0.0000 C   0  0  0  0  0  0  0  0  0  0  0  0
    3.5606    0.0003    0.0000 C   0  0  0  0  0  0  0  0  0  0  0  0
    4.2751   -0.4122    0.0000 C   0  0  0  0  0  0  0  0  0  0  0  0
    4.9896    0.0003    0.0000 C   0  0  0  0  0  0  0  0  0  0  0  0
    5.7040   -0.4122    0.0000 C   0  0  0  0  0  0  0  0  0  0  0  0
    6.4185    0.0003    0.0000 C   0  0  0  0  0  0  0  0  0  0  0  0
    7.1330   -0.4122    0.0000 C   0  0  0  0  0  0  0  0  0  0  0  0
    7.8474    0.0003    0.0000 C   0  0  0  0  0  0  0  0  0  0  0  0
    8.5619   -0.4122    0.0000 C   0  0  0  0  0  0  0  0  0  0  0  0
    9.2764    0.0003    0.0000 C   0  0  0  0  0  0  0  0  0  0  0  0
    9.9909   -0.4122    0.0000 C   0  0  0  0  0  0  0  0  0  0  0  0
   10.7053    0.0003    0.0000 C   0  0  0  0  0  0  0  0  0  0  0  0
   11.4198   -0.4122    0.0000 C   0  0  0  0  0  0  0  0  0  0  0  0
   12.1343    0.0003    0.0000 O   0  0  0  0  0  0  0  0  0  0  0  0
  1  2  1  0  0  0  0
  1  3  1  0  0  0  0
  3  4  1  0  0  0  0
  4  5  1  0  0  0  0
  5  6  1  0  0  0  0
  6  7  1  0  0  0  0
  7  8  1  0  0  0  0
  8  9  1  0  0  0  0
  9 10  1  0  0  0  0
 10 11  1  0  0  0  0
 11 12  1  0  0  0  0
 12 13  1  0  0  0  0
 13 14  1  0  0  0  0
 14 15  1  0  0  0  0
 15 16  1  0  0  0  0
 16 17  1  0  0  0  0
 17 18  1  0  0  0  0
M  END
> <ChemID>
100968

> <CAS>
1454-85-9

> <Original_SMILES>
CCCCCCCCCCCCCCCCCO

> <preferred_name>
Heptadecan-1-ol

> <dsstox_substance_id>
DTXSID3051460

> <dsstox_compound_id>
DTXCID208323

> <qc_level>
DSSTox_Low

> <Canonical_QSARr>
CCCCCCCCCCCCCCCCCO

> <InChI_Code_QSARr>
InChI=1S/C17H36O/c1-2-3-4-5-6-7-8-9-10-11-12-13-14-15-16-17-18/h18H,2-17H2,1H3

> <InChI Key_QSARr>
GOQYKNQRPGWPLP-UHFFFAOYSA-N

> <Salt_Solvent>


> <Salt_Solvent_ID>
0

> <MPID>
100962

> <Tr_1_Tst_0>
1

> <Ready_Biodeg>
1.0

$$$$
Row934
  Mrv171c012251911052D          

 14 14  0  0  0  0            999 V2000
    2.9507   -2.1172    0.0000 C   0  0  0  0  0  0  0  0  0  0  0  0
    3.6651   -2.5297    0.0000 C   0  0  0  0  0  0  0  0  0  0  0  0
    3.6651   -3.3547    0.0000 O   0  0  0  0  0  0  0  0  0  0  0  0
    4.3796   -3.7672    0.0000 C   0  0  0  0  0  0  0  0  0  0  0  0
    4.3796   -2.1172    0.0000 O   0  0  0  0  0  0  0  0  0  0  0  0
    2.9507   -1.2922    0.0000 C   0  0  0  0  0  0  0  0  0  0  0  0
    2.2362   -0.8797    0.0000 C   0  0  0  0  0  0  0  0  0  0  0  0
    2.2362   -0.0547    0.0000 C   0  0  0  0  0  0  0  0  0  0  0  0
    2.9507    0.3578    0.0000 O   0  0  0  0  0  0  0  0  0  0  0  0
    2.9507    1.1828    0.0000 C   0  0  0  0  0  0  0  0  0  0  0  0
    1.5217    0.3578    0.0000 O   0  0  0  0  0  0  0  0  0  0  0  0
    1.5217   -1.2922    0.0000 C   0  0  0  0  0  0  0  0  0  0  0  0
    1.5217   -2.1172    0.0000 C   0  0  0  0  0  0  0  0  0  0  0  0
    2.2362   -2.5297    0.0000 C   0  0  0  0  0  0  0  0  0  0  0  0
  1  2  1  0  0  0  0
  2  3  1  0  0  0  0
  3  4  1  0  0  0  0
  2  5  2  0  0  0  0
  6  1  1  0  0  0  0
  7  6  2  0  0  0  0
  7  8  1  0  0  0  0
  8  9  1  0  0  0  0
  9 10  1  0  0  0  0
  8 11  2  0  0  0  0
 12  7  1  0  0  0  0
 13 12  2  0  0  0  0
 14 13  1  0  0  0  0
  1 14  2  0  0  0  0
M  END
> <ChemID>
100969

> <CAS>
1459-93-4

> <Original_SMILES>
COC(=O)c1cc(ccc1)C(=O)OC

> <preferred_name>
Dimethyl isophthalate

> <dsstox_substance_id>
DTXSID8027402

> <dsstox_compound_id>
DTXCID307402

> <qc_level>
DSSTox_Low

> <Canonical_QSARr>
COC(=O)C1=CC(=CC=C1)C(=O)OC

> <InChI_Code_QSARr>
InChI=1S/C10H10O4/c1-13-9(11)7-4-3-5-8(6-7)10(12)14-2/h3-6H,1-2H3

> <InChI Key_QSARr>
VNGOYPQMJFJDLV-UHFFFAOYSA-N

> <Salt_Solvent>


> <Salt_Solvent_ID>
0

> <MPID>
100963

> <Tr_1_Tst_0>
1

> <Ready_Biodeg>
1.0

$$$$
Row935
  Mrv171c012251911052D          

 18 18  0  0  0  0            999 V2000
    5.2223   -1.2927    0.0000 C   0  0  0  0  0  0  0  0  0  0  0  0
    5.9368   -1.7052    0.0000 C   0  0  0  0  0  0  0  0  0  0  0  0
    5.6348   -0.5783    0.0000 C   0  0  0  0  0  0  0  0  0  0  0  0
    4.8098   -2.0072    0.0000 C   0  0  0  0  0  0  0  0  0  0  0  0
    4.5078   -0.8802    0.0000 C   0  0  0  0  0  0  0  0  0  0  0  0
    4.5078   -0.0552    0.0000 C   0  0  0  0  0  0  0  0  0  0  0  0
    3.7934    0.3573    0.0000 C   0  0  0  0  0  0  0  0  0  0  0  0
    3.7934    1.1823    0.0000 C   0  0  0  0  0  0  0  0  0  0  0  0
    3.7934    2.0073    0.0000 C   0  0  0  0  0  0  0  0  0  0  0  0
    4.6184    1.1823    0.0000 C   0  0  0  0  0  0  0  0  0  0  0  0
    2.9684    1.1823    0.0000 C   0  0  0  0  0  0  0  0  0  0  0  0
    3.0789   -0.0552    0.0000 C   0  0  0  0  0  0  0  0  0  0  0  0
    3.0789   -0.8802    0.0000 C   0  0  0  0  0  0  0  0  0  0  0  0
    2.3644   -1.2927    0.0000 C   0  0  0  0  0  0  0  0  0  0  0  0
    1.6499   -1.7052    0.0000 C   0  0  0  0  0  0  0  0  0  0  0  0
    2.7769   -2.0072    0.0000 C   0  0  0  0  0  0  0  0  0  0  0  0
    1.9519   -0.5783    0.0000 C   0  0  0  0  0  0  0  0  0  0  0  0
    3.7934   -1.2927    0.0000 C   0  0  0  0  0  0  0  0  0  0  0  0
  1  2  1  0  0  0  0
  1  3  1  0  0  0  0
  1  4  1  0  0  0  0
  1  5  1  0  0  0  0
  6  5  1  0  0  0  0
  7  6  2  0  0  0  0
  7  8  1  0  0  0  0
  8  9  1  0  0  0  0
  8 10  1  0  0  0  0
  8 11  1  0  0  0  0
 12  7  1  0  0  0  0
 13 12  2  0  0  0  0
 13 14  1  0  0  0  0
 14 15  1  0  0  0  0
 14 16  1  0  0  0  0
 14 17  1  0  0  0  0
 18 13  1  0  0  0  0
  5 18  2  0  0  0  0
M  END
> <ChemID>
100970

> <CAS>
1460-02-2

> <Original_SMILES>
CC(C)(C)c1cc(cc(c1)C(C)(C)C)C(C)(C)C

> <preferred_name>
1,3,5-Tri-tert-butylbenzene

> <dsstox_substance_id>
DTXSID50163255

> <dsstox_compound_id>
DTXCID5085746

> <qc_level>
Public_Medium

> <Canonical_QSARr>
CC(C)(C)C1C=C(C=C(C=1)C(C)(C)C)C(C)(C)C

> <InChI_Code_QSARr>
InChI=1S/C18H30/c1-16(2,3)13-10-14(17(4,5)6)12-15(11-13)18(7,8)9/h10-12H,1-9H3

> <InChI Key_QSARr>
GUFMBISUSZUUCB-UHFFFAOYSA-N

> <Salt_Solvent>


> <Salt_Solvent_ID>
0

> <MPID>
100964

> <Tr_1_Tst_0>
0

> <Ready_Biodeg>
0.0

$$$$
Row936
  Mrv171c012251911052D          

 10 10  0  0  0  0            999 V2000
    1.9316   -1.6937    0.0000 C   0  0  0  0  0  0  0  0  0  0  0  0
    2.6461   -2.1062    0.0000 C   0  0  0  0  0  0  0  0  0  0  0  0
    2.6461   -2.9312    0.0000 N   0  0  0  0  0  0  0  0  0  0  0  0
    1.9316   -0.8687    0.0000 C   0  0  0  0  0  0  0  0  0  0  0  0
    1.2171   -0.4562    0.0000 C   0  0  0  0  0  0  0  0  0  0  0  0
    1.2171    0.3688    0.0000 C   0  0  0  0  0  0  0  0  0  0  0  0
    0.5027    0.7813    0.0000 N   0  0  0  0  0  0  0  0  0  0  0  0
    0.5027   -0.8687    0.0000 C   0  0  0  0  0  0  0  0  0  0  0  0
    0.5027   -1.6937    0.0000 C   0  0  0  0  0  0  0  0  0  0  0  0
    1.2171   -2.1062    0.0000 C   0  0  0  0  0  0  0  0  0  0  0  0
  1  2  1  0  0  0  0
  2  3  1  0  0  0  0
  4  1  1  0  0  0  0
  5  4  2  0  0  0  0
  5  6  1  0  0  0  0
  6  7  1  0  0  0  0
  8  5  1  0  0  0  0
  9  8  2  0  0  0  0
 10  9  1  0  0  0  0
  1 10  2  0  0  0  0
M  END
> <ChemID>
100972

> <CAS>
1477-55-0

> <Original_SMILES>
NCc1cc(CN)ccc1

> <preferred_name>
1,3-Benzenedimethanamine

> <dsstox_substance_id>
DTXSID9029649

> <dsstox_compound_id>
DTXCID909649

> <qc_level>
DSSTox_Low

> <Canonical_QSARr>
NCC1C=C(CN)C=CC=1

> <InChI_Code_QSARr>
InChI=1S/C8H12N2/c9-5-7-2-1-3-8(4-7)6-10/h1-4H,5-6,9-10H2

> <InChI Key_QSARr>
FDLQZKYLHJJBHD-UHFFFAOYSA-N

> <Salt_Solvent>


> <Salt_Solvent_ID>
0

> <MPID>
100965

> <Tr_1_Tst_0>
1

> <Ready_Biodeg>
0.0

$$$$
Row937
  Mrv171c012251911052D          

 11 11  0  0  0  0            999 V2000
    2.1440   -1.7150    0.0000 O   0  0  0  0  0  0  0  0  0  0  0  0
    1.4296   -2.1275    0.0000 C   0  0  0  0  0  0  0  0  0  0  0  0
    0.7151   -1.7150    0.0000 C   0  0  0  0  0  0  0  0  0  0  0  0
    0.7151   -0.8900    0.0000 C   0  0  0  0  0  0  0  0  0  0  0  0
    0.0006   -0.4775    0.0000 C   0  0  0  0  0  0  0  0  0  0  0  0
    1.4296   -0.4775    0.0000 C   0  0  0  0  0  0  0  0  0  0  0  0
    0.0006   -2.1275    0.0000 C   0  0  0  0  0  0  0  0  0  0  0  0
    0.0006   -2.9525    0.0000 C   0  0  0  0  0  0  0  0  0  0  0  0
    0.7151   -3.3650    0.0000 C   0  0  0  0  0  0  0  0  0  0  0  0
    0.7151   -4.1900    0.0000 C   0  0  0  0  0  0  0  0  0  0  0  0
    1.4296   -2.9525    0.0000 C   0  0  0  0  0  0  0  0  0  0  0  0
  1  2  1  0  0  0  0
  3  2  1  0  0  0  0
  3  4  1  0  0  0  0
  4  5  1  0  0  0  0
  4  6  1  0  0  0  0
  7  3  1  0  0  0  0
  8  7  1  0  0  0  0
  9  8  1  0  0  0  0
  9 10  1  0  0  0  0
 11  9  1  0  0  0  0
  2 11  1  0  0  0  0
M  END
> <ChemID>
100973

> <CAS>
1490-04-6|2216-51-5

> <Original_SMILES>
CC(C)C1CCC(C)CC1O

> <preferred_name>
Menthol|(1R,2S,5R)-(-)-Menthol

> <dsstox_substance_id>
DTXSID8029650|DTXSID1022180

> <dsstox_compound_id>
DTXCID30805|DTXCID802180

> <qc_level>
DSSTox_High

> <Canonical_QSARr>
CC(C)C1CCC(C)CC1O

> <InChI_Code_QSARr>
InChI=1S/C10H20O/c1-7(2)9-5-4-8(3)6-10(9)11/h7-11H,4-6H2,1-3H3

> <InChI Key_QSARr>
NOOLISFMXDJSKH-UHFFFAOYSA-N

> <Salt_Solvent>


> <Salt_Solvent_ID>
0

> <MPID>
100966|101012

> <Tr_1_Tst_0>
1

> <Ready_Biodeg>
0.0

$$$$
Row938
  Mrv171c012251911052D          

 13 14  0  0  0  0            999 V2000
    1.4390   -2.1038    0.0000 C   0  0  0  0  0  0  0  0  0  0  0  0
    0.7246   -1.6913    0.0000 O   0  0  0  0  0  0  0  0  0  0  0  0
    1.4390   -2.9288    0.0000 C   0  0  0  0  0  0  0  0  0  0  0  0
    2.1535   -3.3413    0.0000 C   0  0  0  0  0  0  0  0  0  0  0  0
    2.8680   -2.9288    0.0000 C   0  0  0  0  0  0  0  0  0  0  0  0
    2.8680   -2.1038    0.0000 C   0  0  0  0  0  0  0  0  0  0  0  0
    2.1535   -1.6913    0.0000 C   0  0  0  0  0  0  0  0  0  0  0  0
    2.1535   -0.8663    0.0000 C   0  0  0  0  0  0  0  0  0  0  0  0
    2.8680   -0.4538    0.0000 C   0  0  0  0  0  0  0  0  0  0  0  0
    2.8680    0.3712    0.0000 C   0  0  0  0  0  0  0  0  0  0  0  0
    2.1535    0.7837    0.0000 C   0  0  0  0  0  0  0  0  0  0  0  0
    1.4390    0.3712    0.0000 C   0  0  0  0  0  0  0  0  0  0  0  0
    1.4390   -0.4538    0.0000 C   0  0  0  0  0  0  0  0  0  0  0  0
  1  2  2  0  0  0  0
  3  1  1  0  0  0  0
  4  3  1  0  0  0  0
  5  4  1  0  0  0  0
  6  5  1  0  0  0  0
  7  6  1  0  0  0  0
  1  7  1  0  0  0  0
  7  8  1  0  0  0  0
  9  8  1  0  0  0  0
 10  9  1  0  0  0  0
 11 10  1  0  0  0  0
 12 11  1  0  0  0  0
 13 12  1  0  0  0  0
  8 13  2  0  0  0  0
M  END
> <ChemID>
100974

> <CAS>
1502-22-3

> <Original_SMILES>
O=C1CCCCC1C1CCCCC=1

> <preferred_name>


> <dsstox_substance_id>
DTXSID30870879

> <dsstox_compound_id>
DTXCID00818561

> <qc_level>


> <Canonical_QSARr>
O=C1CCCCC1C1CCCCC=1

> <InChI_Code_QSARr>
InChI=1S/C12H18O/c13-12-9-5-4-8-11(12)10-6-2-1-3-7-10/h6,11H,1-5,7-9H2

> <InChI Key_QSARr>
GVNVAWHJIKLAGL-UHFFFAOYSA-N

> <Salt_Solvent>


> <Salt_Solvent_ID>
0

> <MPID>
100967

> <Tr_1_Tst_0>
1

> <Ready_Biodeg>
0.0

$$$$
Row939
  Mrv171c012251911052D          

 16 15  0  0  0  0            999 V2000
    4.9503   -3.4252    0.0000 C   0  0  0  0  0  0  0  0  0  0  0  0
    4.2358   -3.0127    0.0000 C   0  0  0  0  0  0  0  0  0  0  0  0
    3.5213   -3.4252    0.0000 C   0  0  0  0  0  0  0  0  0  0  0  0
    2.8069   -3.0127    0.0000 S   0  0  0  0  0  0  0  0  0  0  0  0
    2.0924   -2.6002    0.0000 O   0  0  0  0  0  0  0  0  0  0  0  0
    2.3944   -3.7272    0.0000 O   0  0  0  0  0  0  0  0  0  0  0  0
    3.2194   -2.2982    0.0000 O   0  0  0  0  0  0  0  0  0  0  0  0
    5.6648   -3.0127    0.0000 C   0  0  0  0  0  0  0  0  0  0  0  0
    6.3792   -3.4252    0.0000 C   0  0  0  0  0  0  0  0  0  0  0  0
    7.0937   -3.0127    0.0000 C   0  0  0  0  0  0  0  0  0  0  0  0
    7.8082   -3.4252    0.0000 C   0  0  0  0  0  0  0  0  0  0  0  0
    8.5226   -3.0127    0.0000 C   0  0  0  0  0  0  0  0  0  0  0  0
    9.2371   -3.4252    0.0000 C   0  0  0  0  0  0  0  0  0  0  0  0
    9.9516   -3.0127    0.0000 C   0  0  0  0  0  0  0  0  0  0  0  0
   10.6660   -3.4252    0.0000 C   0  0  0  0  0  0  0  0  0  0  0  0
   11.3805   -3.0127    0.0000 C   0  0  0  0  0  0  0  0  0  0  0  0
  1  2  1  0  0  0  0
  2  3  1  0  0  0  0
  3  4  1  0  0  0  0
  4  5  2  0  0  0  0
  4  6  2  0  0  0  0
  4  7  1  0  0  0  0
  1  8  1  0  0  0  0
  8  9  1  0  0  0  0
  9 10  1  0  0  0  0
 10 11  1  0  0  0  0
 11 12  1  0  0  0  0
 12 13  1  0  0  0  0
 13 14  1  0  0  0  0
 14 15  1  0  0  0  0
 15 16  1  0  0  0  0
M  END
> <ChemID>
100975

> <CAS>
1510-16-3

> <Original_SMILES>
CCCCCCCCCCCCS(O)(=O)=O

> <preferred_name>
1-Dodecanesulfonic acid

> <dsstox_substance_id>
DTXSID3073262

> <dsstox_compound_id>
DTXCID6034893

> <qc_level>
Public_High

> <Canonical_QSARr>
CCCCCCCCCCCCS(O)(=O)=O

> <InChI_Code_QSARr>
InChI=1S/C12H26O3S/c1-2-3-4-5-6-7-8-9-10-11-12-16(13,14)15/h2-12H2,1H3,(H,13,14,15)

> <InChI Key_QSARr>
LDMOEFOXLIZJOW-UHFFFAOYSA-N

> <Salt_Solvent>


> <Salt_Solvent_ID>
0

> <MPID>
100968

> <Tr_1_Tst_0>
0

> <Ready_Biodeg>
1.0

$$$$
Row940
  Mrv171c012251911052D          

  9  9  0  0  0  0            999 V2000
    1.8265   -1.2374    0.0000 C   0  0  0  0  0  0  0  0  0  0  0  0
    2.5410   -1.6499    0.0000 C   0  0  0  0  0  0  0  0  0  0  0  0
    1.8265   -0.4124    0.0000 C   0  0  0  0  0  0  0  0  0  0  0  0
    1.1121    0.0001    0.0000 C   0  0  0  0  0  0  0  0  0  0  0  0
    1.1121    0.8251    0.0000 Cl  0  0  0  0  0  0  0  0  0  0  0  0
    0.3976   -0.4124    0.0000 C   0  0  0  0  0  0  0  0  0  0  0  0
    0.3976   -1.2374    0.0000 C   0  0  0  0  0  0  0  0  0  0  0  0
    1.1121   -1.6499    0.0000 C   0  0  0  0  0  0  0  0  0  0  0  0
    1.1121   -2.4749    0.0000 O   0  0  0  0  0  0  0  0  0  0  0  0
  1  2  1  0  0  0  0
  3  1  1  0  0  0  0
  4  3  2  0  0  0  0
  4  5  1  0  0  0  0
  6  4  1  0  0  0  0
  7  6  2  0  0  0  0
  8  7  1  0  0  0  0
  1  8  2  0  0  0  0
  8  9  1  0  0  0  0
M  END
> <ChemID>
100976

> <CAS>
1570-64-5

> <Original_SMILES>
Cc1cc(Cl)ccc1O

> <preferred_name>
4-Chloro-2-methylphenol

> <dsstox_substance_id>
DTXSID5022510

> <dsstox_compound_id>
DTXCID502510

> <qc_level>
DSSTox_Low

> <Canonical_QSARr>
CC1C=C(Cl)C=CC=1O

> <InChI_Code_QSARr>
InChI=1S/C7H7ClO/c1-5-4-6(8)2-3-7(5)9/h2-4,9H,1H3

> <InChI Key_QSARr>
RHPUJHQBPORFGV-UHFFFAOYSA-N

> <Salt_Solvent>


> <Salt_Solvent_ID>
0

> <MPID>
100969

> <Tr_1_Tst_0>
1

> <Ready_Biodeg>
0.0

$$$$
Row941
  Mrv171c012251911052D          

 15 16  0  0  0  0            999 V2000
    0.8838   -2.1499    0.0000 O   0  0  0  0  0  0  0  0  0  0  0  0
    1.1387   -1.3653    0.0000 C   0  0  0  0  0  0  0  0  0  0  0  0
    1.9233   -1.1104    0.0000 C   0  0  0  0  0  0  0  0  0  0  0  0
    1.9233   -0.2854    0.0000 C   0  0  0  0  0  0  0  0  0  0  0  0
    2.6378    0.1271    0.0000 C   0  0  0  0  0  0  0  0  0  0  0  0
    2.6378    0.9521    0.0000 Cl  0  0  0  0  0  0  0  0  0  0  0  0
    3.3523   -0.2854    0.0000 C   0  0  0  0  0  0  0  0  0  0  0  0
    4.0667    0.1271    0.0000 Cl  0  0  0  0  0  0  0  0  0  0  0  0
    3.3523   -1.1104    0.0000 C   0  0  0  0  0  0  0  0  0  0  0  0
    4.0667   -1.5229    0.0000 Cl  0  0  0  0  0  0  0  0  0  0  0  0
    2.6378   -1.5229    0.0000 C   0  0  0  0  0  0  0  0  0  0  0  0
    2.6378   -2.3479    0.0000 Cl  0  0  0  0  0  0  0  0  0  0  0  0
    1.1387   -0.0304    0.0000 C   0  0  0  0  0  0  0  0  0  0  0  0
    0.8838    0.7542    0.0000 O   0  0  0  0  0  0  0  0  0  0  0  0
    0.6538   -0.6979    0.0000 N   0  0  0  0  0  0  0  0  0  0  0  0
  1  2  2  0  0  0  0
  3  2  1  0  0  0  0
  3  4  1  0  0  0  0
  4  5  2  0  0  0  0
  5  6  1  0  0  0  0
  5  7  1  0  0  0  0
  7  8  1  0  0  0  0
  7  9  2  0  0  0  0
  9 10  1  0  0  0  0
  9 11  1  0  0  0  0
 11  3  2  0  0  0  0
 11 12  1  0  0  0  0
 13  4  1  0  0  0  0
 13 14  2  0  0  0  0
 15 13  1  0  0  0  0
  2 15  1  0  0  0  0
M  END
> <ChemID>
100977

> <CAS>
1571-13-7

> <Original_SMILES>
O=C1NC(=O)c2c1c(Cl)c(Cl)c(Cl)c2Cl

> <preferred_name>
1H-Isoindole-1,3(2H)-dione, 4,5,6,7-tetrachloro-

> <dsstox_substance_id>
DTXSID0061791

> <dsstox_compound_id>
DTXCID4035049

> <qc_level>
Public_High

> <Canonical_QSARr>
O=C1NC(=O)C2C1=C(Cl)C(Cl)=C(Cl)C=2Cl

> <InChI_Code_QSARr>
InChI=1S/C8HCl4NO2/c9-3-1-2(8(15)13-7(1)14)4(10)6(12)5(3)11/h(H,13,14,15)

> <InChI Key_QSARr>
LPUUYZVKCMCHLO-UHFFFAOYSA-N

> <Salt_Solvent>


> <Salt_Solvent_ID>
0

> <MPID>
100970

> <Tr_1_Tst_0>
1

> <Ready_Biodeg>
0.0

$$$$
Row942
  Mrv171c012251911052D          

 16 15  0  0  0  0            999 V2000
    1.1859    1.1610    0.0000 C   0  0  0  0  0  0  0  0  0  0  0  0
    1.1859    1.9860    0.0000 F   0  0  0  0  0  0  0  0  0  0  0  0
    1.1859    0.3360    0.0000 F   0  0  0  0  0  0  0  0  0  0  0  0
    2.0109    1.1610    0.0000 C   0  0  0  0  0  0  0  0  0  0  0  0
    2.8359    1.1610    0.0000 F   0  0  0  0  0  0  0  0  0  0  0  0
    2.0109    1.9860    0.0000 F   0  0  0  0  0  0  0  0  0  0  0  0
    2.0109    0.3360    0.0000 F   0  0  0  0  0  0  0  0  0  0  0  0
    0.3609    1.1610    0.0000 C   0  0  0  0  0  0  0  0  0  0  0  0
    0.3609    1.9860    0.0000 F   0  0  0  0  0  0  0  0  0  0  0  0
    0.3609    0.3360    0.0000 F   0  0  0  0  0  0  0  0  0  0  0  0
   -0.4641    1.1610    0.0000 O   0  0  0  0  0  0  0  0  0  0  0  0
   -0.8766    1.8755    0.0000 C   0  0  0  0  0  0  0  0  0  0  0  0
   -0.4641    2.5899    0.0000 F   0  0  0  0  0  0  0  0  0  0  0  0
   -1.7016    1.8755    0.0000 C   0  0  0  0  0  0  0  0  0  0  0  0
   -2.1141    1.1610    0.0000 F   0  0  0  0  0  0  0  0  0  0  0  0
   -2.1141    2.5899    0.0000 F   0  0  0  0  0  0  0  0  0  0  0  0
  1  2  1  0  0  0  0
  1  3  1  0  0  0  0
  1  4  1  0  0  0  0
  4  5  1  0  0  0  0
  4  6  1  0  0  0  0
  4  7  1  0  0  0  0
  1  8  1  0  0  0  0
  8  9  1  0  0  0  0
  8 10  1  0  0  0  0
  8 11  1  0  0  0  0
 11 12  1  0  0  0  0
 12 13  1  0  0  0  0
 12 14  2  0  0  0  0
 14 15  1  0  0  0  0
 14 16  1  0  0  0  0
M  END
> <ChemID>
100978

> <CAS>
1623-05-8

> <Original_SMILES>
FC(F)(F)C(F)(F)C(F)(F)OC(F)=C(F)F

> <preferred_name>
Propane, 1,1,1,2,2,3,3-heptafluoro-3-[(trifluoroethenyl)oxy]-

> <dsstox_substance_id>
DTXSID0061826

> <dsstox_compound_id>
DTXCID8035217

> <qc_level>
Public_High

> <Canonical_QSARr>
FC(F)(F)C(F)(F)C(F)(F)OC(F)=C(F)F

> <InChI_Code_QSARr>
InChI=1S/C5F10O/c6-1(7)2(8)16-5(14,15)3(9,10)4(11,12)13

> <InChI Key_QSARr>
KHXKESCWFMPTFT-UHFFFAOYSA-N

> <Salt_Solvent>


> <Salt_Solvent_ID>
0

> <MPID>
100971

> <Tr_1_Tst_0>
1

> <Ready_Biodeg>
0.0

$$$$
Row943
  Mrv171c012251911052D          

  6  5  0  0  0  0            999 V2000
    1.5715   -1.5488    0.0000 C   0  0  0  0  0  0  0  0  0  0  0  0
    1.1590   -0.8343    0.0000 C   0  0  0  0  0  0  0  0  0  0  0  0
    1.8735   -0.4218    0.0000 C   0  0  0  0  0  0  0  0  0  0  0  0
    0.4446   -1.2468    0.0000 C   0  0  0  0  0  0  0  0  0  0  0  0
    0.7465   -0.1198    0.0000 O   0  0  0  0  0  0  0  0  0  0  0  0
   -0.0785   -0.1198    0.0000 C   0  0  0  0  0  0  0  0  0  0  0  0
  1  2  1  0  0  0  0
  2  3  1  0  0  0  0
  2  4  1  0  0  0  0
  2  5  1  0  0  0  0
  5  6  1  0  0  0  0
M  END
> <ChemID>
100979

> <CAS>
1634-04-4

> <Original_SMILES>
COC(C)(C)C

> <preferred_name>
Methyl tert-butyl ether

> <dsstox_substance_id>
DTXSID3020833

> <dsstox_compound_id>
DTXCID30833

> <qc_level>
DSSTox_Low

> <Canonical_QSARr>
COC(C)(C)C

> <InChI_Code_QSARr>
InChI=1S/C5H12O/c1-5(2,3)6-4/h1-4H3

> <InChI Key_QSARr>
BZLVMXJERCGZMT-UHFFFAOYSA-N

> <Salt_Solvent>


> <Salt_Solvent_ID>
0

> <MPID>
100972

> <Tr_1_Tst_0>
0

> <Ready_Biodeg>
0.0

$$$$
Row944
  Mrv171c012251911052D          

 16 15  0  0  0  0            999 V2000
    1.4378   -0.4589    0.0000 C   0  0  0  0  0  0  0  0  0  0  0  0
    0.7233   -0.8714    0.0000 C   0  0  0  0  0  0  0  0  0  0  0  0
    0.0088   -0.4589    0.0000 C   0  0  0  0  0  0  0  0  0  0  0  0
    2.1523   -0.8714    0.0000 C   0  0  0  0  0  0  0  0  0  0  0  0
    2.8667   -0.4589    0.0000 C   0  0  0  0  0  0  0  0  0  0  0  0
    3.5812   -0.8714    0.0000 C   0  0  0  0  0  0  0  0  0  0  0  0
    4.2957   -0.4589    0.0000 C   0  0  0  0  0  0  0  0  0  0  0  0
    5.0101   -0.8714    0.0000 C   0  0  0  0  0  0  0  0  0  0  0  0
    5.7246   -0.4589    0.0000 C   0  0  0  0  0  0  0  0  0  0  0  0
    6.4391   -0.8714    0.0000 C   0  0  0  0  0  0  0  0  0  0  0  0
    7.1536   -0.4589    0.0000 C   0  0  0  0  0  0  0  0  0  0  0  0
    7.8680   -0.8714    0.0000 C   0  0  0  0  0  0  0  0  0  0  0  0
    8.5825   -0.4589    0.0000 N   0  3  0  0  0  0  0  0  0  0  0  0
    9.2970   -0.0464    0.0000 O   0  5  0  0  0  0  0  0  0  0  0  0
    8.9950   -1.1734    0.0000 C   0  0  0  0  0  0  0  0  0  0  0  0
    8.1700    0.2555    0.0000 C   0  0  0  0  0  0  0  0  0  0  0  0
  1  2  1  0  0  0  0
  2  3  1  0  0  0  0
  1  4  1  0  0  0  0
  4  5  1  0  0  0  0
  5  6  1  0  0  0  0
  6  7  1  0  0  0  0
  7  8  1  0  0  0  0
  8  9  1  0  0  0  0
  9 10  1  0  0  0  0
 10 11  1  0  0  0  0
 11 12  1  0  0  0  0
 12 13  1  0  0  0  0
 13 14  1  0  0  0  0
 13 15  1  0  0  0  0
 13 16  1  0  0  0  0
M  CHG  2  13   1  14  -1
M  END
> <ChemID>
100980

> <CAS>
1643-20-5

> <Original_SMILES>
CCCCCCCCCCCC[N+](C)(C)[O-]

> <preferred_name>
N,N-Dimethyldodecylamine-N-oxide

> <dsstox_substance_id>
DTXSID1020514

> <dsstox_compound_id>
DTXCID8042

> <qc_level>
DSSTox_Low

> <Canonical_QSARr>
CCCCCCCCCCCC[N+](C)(C)[O-]

> <InChI_Code_QSARr>
InChI=1S/C14H31NO/c1-4-5-6-7-8-9-10-11-12-13-14-15(2,3)16/h4-14H2,1-3H3

> <InChI Key_QSARr>
SYELZBGXAIXKHU-UHFFFAOYSA-N

> <Salt_Solvent>


> <Salt_Solvent_ID>
0

> <MPID>
100973

> <Tr_1_Tst_0>
1

> <Ready_Biodeg>
1.0

$$$$
Row945
  Mrv171c012251911052D          

  9  8  0  0  0  0            999 V2000
    0.7326   -0.3601    0.0000 C   0  0  0  0  0  0  0  0  0  0  0  0
    0.0182    0.0524    0.0000 N   0  0  0  0  0  0  0  0  0  0  0  0
    1.4471   -0.7726    0.0000 C   0  0  0  0  0  0  0  0  0  0  0  0
    2.1616   -0.3601    0.0000 C   0  0  0  0  0  0  0  0  0  0  0  0
    2.8761   -0.7726    0.0000 O   0  0  0  0  0  0  0  0  0  0  0  0
    3.5905   -0.3601    0.0000 C   0  0  0  0  0  0  0  0  0  0  0  0
    4.3050   -0.7726    0.0000 C   0  0  0  0  0  0  0  0  0  0  0  0
    5.0195   -0.3601    0.0000 C   0  0  0  0  0  0  0  0  0  0  0  0
    5.7339    0.0524    0.0000 N   0  0  0  0  0  0  0  0  0  0  0  0
  1  2  3  0  0  0  0
  1  3  1  0  0  0  0
  3  4  1  0  0  0  0
  4  5  1  0  0  0  0
  5  6  1  0  0  0  0
  6  7  1  0  0  0  0
  7  8  1  0  0  0  0
  8  9  3  0  0  0  0
M  END
> <ChemID>
100981

> <CAS>
1656-48-0

> <Original_SMILES>
N#CCCOCCC#N

> <preferred_name>
3,3'-Oxydipropionitrile

> <dsstox_substance_id>
DTXSID5044154

> <dsstox_compound_id>
DTXCID3024154

> <qc_level>
DSSTox_High

> <Canonical_QSARr>
N#CCCOCCC#N

> <InChI_Code_QSARr>
InChI=1S/C6H8N2O/c7-3-1-5-9-6-2-4-8/h1-2,5-6H2

> <InChI Key_QSARr>
BCGCCTGNWPKXJL-UHFFFAOYSA-N

> <Salt_Solvent>


> <Salt_Solvent_ID>
0

> <MPID>
100974

> <Tr_1_Tst_0>
1

> <Ready_Biodeg>
1.0

$$$$
Row946
  Mrv171c012251911052D          

 40 39  0  0  0  0            999 V2000
    4.2865  -15.9978    0.0000 P   0  0  0  0  0  0  0  0  0  0  0  0
    4.2865  -16.8228    0.0000 S   0  0  0  0  0  0  0  0  0  0  0  0
    5.0010  -17.2353    0.0000 C   0  0  0  0  0  0  0  0  0  0  0  0
    5.0010  -18.0603    0.0000 C   0  0  0  0  0  0  0  0  0  0  0  0
    5.7155  -18.4728    0.0000 C   0  0  0  0  0  0  0  0  0  0  0  0
    5.7155  -19.2978    0.0000 C   0  0  0  0  0  0  0  0  0  0  0  0
    6.4299  -19.7103    0.0000 C   0  0  0  0  0  0  0  0  0  0  0  0
    6.4299  -20.5353    0.0000 C   0  0  0  0  0  0  0  0  0  0  0  0
    7.1444  -20.9478    0.0000 C   0  0  0  0  0  0  0  0  0  0  0  0
    7.1444  -21.7728    0.0000 C   0  0  0  0  0  0  0  0  0  0  0  0
    7.8589  -22.1853    0.0000 C   0  0  0  0  0  0  0  0  0  0  0  0
    7.8589  -23.0103    0.0000 C   0  0  0  0  0  0  0  0  0  0  0  0
    8.5733  -23.4228    0.0000 C   0  0  0  0  0  0  0  0  0  0  0  0
    8.5733  -24.2478    0.0000 C   0  0  0  0  0  0  0  0  0  0  0  0
    3.5720  -15.5853    0.0000 S   0  0  0  0  0  0  0  0  0  0  0  0
    3.5720  -14.7603    0.0000 C   0  0  0  0  0  0  0  0  0  0  0  0
    2.8576  -14.3478    0.0000 C   0  0  0  0  0  0  0  0  0  0  0  0
    2.8576  -13.5228    0.0000 C   0  0  0  0  0  0  0  0  0  0  0  0
    2.1431  -13.1103    0.0000 C   0  0  0  0  0  0  0  0  0  0  0  0
    2.1431  -12.2853    0.0000 C   0  0  0  0  0  0  0  0  0  0  0  0
    1.4286  -11.8728    0.0000 C   0  0  0  0  0  0  0  0  0  0  0  0
    1.4286  -11.0478    0.0000 C   0  0  0  0  0  0  0  0  0  0  0  0
    0.7142  -10.6353    0.0000 C   0  0  0  0  0  0  0  0  0  0  0  0
    0.7142   -9.8103    0.0000 C   0  0  0  0  0  0  0  0  0  0  0  0
   -0.0003   -9.3978    0.0000 C   0  0  0  0  0  0  0  0  0  0  0  0
   -0.0003   -8.5728    0.0000 C   0  0  0  0  0  0  0  0  0  0  0  0
   -0.7148   -8.1603    0.0000 C   0  0  0  0  0  0  0  0  0  0  0  0
    5.0010  -15.5853    0.0000 S   0  0  0  0  0  0  0  0  0  0  0  0
    5.0010  -14.7603    0.0000 C   0  0  0  0  0  0  0  0  0  0  0  0
    5.7155  -14.3478    0.0000 C   0  0  0  0  0  0  0  0  0  0  0  0
    5.7155  -13.5228    0.0000 C   0  0  0  0  0  0  0  0  0  0  0  0
    6.4299  -13.1103    0.0000 C   0  0  0  0  0  0  0  0  0  0  0  0
    6.4299  -12.2853    0.0000 C   0  0  0  0  0  0  0  0  0  0  0  0
    7.1444  -11.8728    0.0000 C   0  0  0  0  0  0  0  0  0  0  0  0
    7.1444  -11.0478    0.0000 C   0  0  0  0  0  0  0  0  0  0  0  0
    7.8589  -10.6353    0.0000 C   0  0  0  0  0  0  0  0  0  0  0  0
    7.8589   -9.8103    0.0000 C   0  0  0  0  0  0  0  0  0  0  0  0
    8.5733   -9.3978    0.0000 C   0  0  0  0  0  0  0  0  0  0  0  0
    8.5733   -8.5728    0.0000 C   0  0  0  0  0  0  0  0  0  0  0  0
    9.2878   -8.1603    0.0000 C   0  0  0  0  0  0  0  0  0  0  0  0
  1  2  1  0  0  0  0
  2  3  1  0  0  0  0
  3  4  1  0  0  0  0
  4  5  1  0  0  0  0
  5  6  1  0  0  0  0
  6  7  1  0  0  0  0
  7  8  1  0  0  0  0
  8  9  1  0  0  0  0
  9 10  1  0  0  0  0
 10 11  1  0  0  0  0
 11 12  1  0  0  0  0
 12 13  1  0  0  0  0
 13 14  1  0  0  0  0
  1 15  1  0  0  0  0
 15 16  1  0  0  0  0
 16 17  1  0  0  0  0
 17 18  1  0  0  0  0
 18 19  1  0  0  0  0
 19 20  1  0  0  0  0
 20 21  1  0  0  0  0
 21 22  1  0  0  0  0
 22 23  1  0  0  0  0
 23 24  1  0  0  0  0
 24 25  1  0  0  0  0
 25 26  1  0  0  0  0
 26 27  1  0  0  0  0
  1 28  1  0  0  0  0
 28 29  1  0  0  0  0
 29 30  1  0  0  0  0
 30 31  1  0  0  0  0
 31 32  1  0  0  0  0
 32 33  1  0  0  0  0
 33 34  1  0  0  0  0
 34 35  1  0  0  0  0
 35 36  1  0  0  0  0
 36 37  1  0  0  0  0
 37 38  1  0  0  0  0
 38 39  1  0  0  0  0
 39 40  1  0  0  0  0
M  END
> <ChemID>
100982

> <CAS>
1656-63-9

> <Original_SMILES>
CCCCCCCCCCCCSP(SCCCCCCCCCCCC)SCCCCCCCCCCCC

> <preferred_name>
Phosphorotrithious acid, tridodecyl ester

> <dsstox_substance_id>
DTXSID7061855

> <dsstox_compound_id>
DTXCID5035321

> <qc_level>
Public_High

> <Canonical_QSARr>
CCCCCCCCCCCCSP(SCCCCCCCCCCCC)SCCCCCCCCCCCC

> <InChI_Code_QSARr>
InChI=1S/C36H75PS3/c1-4-7-10-13-16-19-22-25-28-31-34-38-37(39-35-32-29-26-23-20-17-14-11-8-5-2)40-36-33-30-27-24-21-18-15-12-9-6-3/h4-36H2,1-3H3

> <InChI Key_QSARr>
JZNDMMGBXUYFNQ-UHFFFAOYSA-N

> <Salt_Solvent>


> <Salt_Solvent_ID>
0

> <MPID>
100975

> <Tr_1_Tst_0>
1

> <Ready_Biodeg>
0.0

$$$$
Row947
  Mrv171c012251911052D          

 11 11  0  0  0  0            999 V2000
    2.4395   -1.0928    0.0000 C   0  0  0  0  0  0  0  0  0  0  0  0
    1.7250   -0.6803    0.0000 C   0  0  0  0  0  0  0  0  0  0  0  0
    1.7250    0.1447    0.0000 C   0  0  0  0  0  0  0  0  0  0  0  0
    1.7250    0.9697    0.0000 N   0  0  0  0  0  0  0  0  0  0  0  0
    1.0105   -1.0928    0.0000 C   0  0  0  0  0  0  0  0  0  0  0  0
    1.0105   -1.9178    0.0000 C   0  0  0  0  0  0  0  0  0  0  0  0
    0.2961   -2.3303    0.0000 I   0  0  0  0  0  0  0  0  0  0  0  0
    1.7250   -2.3303    0.0000 C   0  0  0  0  0  0  0  0  0  0  0  0
    1.7250   -3.1553    0.0000 O   0  0  0  0  0  0  0  0  0  0  0  0
    2.4395   -1.9178    0.0000 C   0  0  0  0  0  0  0  0  0  0  0  0
    3.1540   -2.3303    0.0000 I   0  0  0  0  0  0  0  0  0  0  0  0
  2  1  1  0  0  0  0
  2  3  1  0  0  0  0
  3  4  3  0  0  0  0
  5  2  2  0  0  0  0
  6  5  1  0  0  0  0
  6  7  1  0  0  0  0
  8  6  2  0  0  0  0
  8  9  1  0  0  0  0
 10  8  1  0  0  0  0
  1 10  2  0  0  0  0
 10 11  1  0  0  0  0
M  END
> <ChemID>
100983

> <CAS>
1689-83-4

> <Original_SMILES>
N#Cc1cc(I)c(O)c(I)c1

> <preferred_name>
Ioxynil

> <dsstox_substance_id>
DTXSID8022161

> <dsstox_compound_id>
DTXCID602161

> <qc_level>
DSSTox_High

> <Canonical_QSARr>
N#CC1=CC(I)=C(O)C(I)=C1

> <InChI_Code_QSARr>
InChI=1S/C7H3I2NO/c8-5-1-4(3-10)2-6(9)7(5)11/h1-2,11H

> <InChI Key_QSARr>
NRXQIUSYPAHGNM-UHFFFAOYSA-N

> <Salt_Solvent>


> <Salt_Solvent_ID>
0

> <MPID>
100976

> <Tr_1_Tst_0>
0

> <Ready_Biodeg>
0.0

$$$$
Row948
  Mrv171c012251911052D          

 11 11  0  0  0  0            999 V2000
    2.4395   -1.0928    0.0000 C   0  0  0  0  0  0  0  0  0  0  0  0
    1.7250   -0.6803    0.0000 C   0  0  0  0  0  0  0  0  0  0  0  0
    1.7250    0.1447    0.0000 C   0  0  0  0  0  0  0  0  0  0  0  0
    1.7250    0.9697    0.0000 N   0  0  0  0  0  0  0  0  0  0  0  0
    1.0105   -1.0928    0.0000 C   0  0  0  0  0  0  0  0  0  0  0  0
    1.0105   -1.9178    0.0000 C   0  0  0  0  0  0  0  0  0  0  0  0
    0.2961   -2.3303    0.0000 Br  0  0  0  0  0  0  0  0  0  0  0  0
    1.7250   -2.3303    0.0000 C   0  0  0  0  0  0  0  0  0  0  0  0
    1.7250   -3.1553    0.0000 O   0  0  0  0  0  0  0  0  0  0  0  0
    2.4395   -1.9178    0.0000 C   0  0  0  0  0  0  0  0  0  0  0  0
    3.1540   -2.3303    0.0000 Br  0  0  0  0  0  0  0  0  0  0  0  0
  2  1  1  0  0  0  0
  2  3  1  0  0  0  0
  3  4  3  0  0  0  0
  5  2  2  0  0  0  0
  6  5  1  0  0  0  0
  6  7  1  0  0  0  0
  8  6  2  0  0  0  0
  8  9  1  0  0  0  0
 10  8  1  0  0  0  0
  1 10  2  0  0  0  0
 10 11  1  0  0  0  0
M  END
> <ChemID>
100984

> <CAS>
1689-84-5

> <Original_SMILES>
N#Cc1cc(Br)c(O)c(Br)c1

> <preferred_name>
Bromoxynil

> <dsstox_substance_id>
DTXSID3022162

> <dsstox_compound_id>
DTXCID002162

> <qc_level>
DSSTox_High

> <Canonical_QSARr>
N#CC1=CC(Br)=C(O)C(Br)=C1

> <InChI_Code_QSARr>
InChI=1S/C7H3Br2NO/c8-5-1-4(3-10)2-6(9)7(5)11/h1-2,11H

> <InChI Key_QSARr>
UPMXNNIRAGDFEH-UHFFFAOYSA-N

> <Salt_Solvent>


> <Salt_Solvent_ID>
0

> <MPID>
100977

> <Tr_1_Tst_0>
1

> <Ready_Biodeg>
1.0

$$$$
Row949
  Mrv171c012251911052D          

 20 20  0  0  0  0            999 V2000
    3.8299   -1.6459    0.0000 C   0  0  0  0  0  0  0  0  0  0  0  0
    3.1154   -2.0584    0.0000 C   0  0  0  0  0  0  0  0  0  0  0  0
    2.4009   -1.6459    0.0000 C   0  0  0  0  0  0  0  0  0  0  0  0
    1.6865   -2.0584    0.0000 C   0  0  0  0  0  0  0  0  0  0  0  0
    0.9720   -1.6459    0.0000 C   0  0  0  0  0  0  0  0  0  0  0  0
    0.2575   -2.0584    0.0000 C   0  0  0  0  0  0  0  0  0  0  0  0
   -0.4570   -1.6459    0.0000 C   0  0  0  0  0  0  0  0  0  0  0  0
   -1.1714   -2.0584    0.0000 C   0  0  0  0  0  0  0  0  0  0  0  0
    4.5443   -2.0584    0.0000 O   0  0  0  0  0  0  0  0  0  0  0  0
    5.2588   -1.6459    0.0000 C   0  0  0  0  0  0  0  0  0  0  0  0
    5.9733   -2.0584    0.0000 C   0  0  0  0  0  0  0  0  0  0  0  0
    5.9733   -2.8834    0.0000 Br  0  0  0  0  0  0  0  0  0  0  0  0
    6.6878   -1.6459    0.0000 C   0  0  0  0  0  0  0  0  0  0  0  0
    6.6878   -0.8209    0.0000 C   0  0  0  0  0  0  0  0  0  0  0  0
    7.4022   -0.4084    0.0000 C   0  0  0  0  0  0  0  0  0  0  0  0
    8.1167    0.0041    0.0000 N   0  0  0  0  0  0  0  0  0  0  0  0
    5.9733   -0.4084    0.0000 C   0  0  0  0  0  0  0  0  0  0  0  0
    5.2588   -0.8209    0.0000 C   0  0  0  0  0  0  0  0  0  0  0  0
    4.5443   -0.4084    0.0000 Br  0  0  0  0  0  0  0  0  0  0  0  0
    3.8299   -0.8209    0.0000 O   0  0  0  0  0  0  0  0  0  0  0  0
  1  2  1  0  0  0  0
  2  3  1  0  0  0  0
  3  4  1  0  0  0  0
  4  5  1  0  0  0  0
  5  6  1  0  0  0  0
  6  7  1  0  0  0  0
  7  8  1  0  0  0  0
  1  9  1  0  0  0  0
  9 10  1  0  0  0  0
 11 10  2  0  0  0  0
 11 12  1  0  0  0  0
 13 11  1  0  0  0  0
 14 13  2  0  0  0  0
 14 15  1  0  0  0  0
 15 16  3  0  0  0  0
 17 14  1  0  0  0  0
 18 17  2  0  0  0  0
 10 18  1  0  0  0  0
 18 19  1  0  0  0  0
  1 20  2  0  0  0  0
M  END
> <ChemID>
100985

> <CAS>
1689-99-2

> <Original_SMILES>
CCCCCCCC(=O)Oc1c(Br)cc(cc1Br)C#N

> <preferred_name>
Bromoxynil octanoate

> <dsstox_substance_id>
DTXSID7023932

> <dsstox_compound_id>
DTXCID803932

> <qc_level>
DSSTox_Low

> <Canonical_QSARr>
CCCCCCCC(=O)OC1C(Br)=CC(=CC=1Br)C#N

> <InChI_Code_QSARr>
InChI=1S/C15H17Br2NO2/c1-2-3-4-5-6-7-14(19)20-15-12(16)8-11(10-18)9-13(15)17/h8-9H,2-7H2,1H3

> <InChI Key_QSARr>
DQKWXTIYGWPGOO-UHFFFAOYSA-N

> <Salt_Solvent>


> <Salt_Solvent_ID>
0

> <MPID>
100978

> <Tr_1_Tst_0>
1

> <Ready_Biodeg>
1.0

$$$$
Row950
  Mrv171c012251911052D          

 10 10  0  0  0  0            999 V2000
    2.3643   -1.8563    0.0000 Cl  0  0  0  0  0  0  0  0  0  0  0  0
    2.3643   -1.0313    0.0000 C   0  0  0  0  0  0  0  0  0  0  0  0
    3.0788   -0.6188    0.0000 C   0  0  0  0  0  0  0  0  0  0  0  0
    3.0788    0.2062    0.0000 C   0  0  0  0  0  0  0  0  0  0  0  0
    2.3643    0.6187    0.0000 C   0  0  0  0  0  0  0  0  0  0  0  0
    2.3643    1.4437    0.0000 C   0  0  0  0  0  0  0  0  0  0  0  0
    1.6499    1.8562    0.0000 C   0  0  0  0  0  0  0  0  0  0  0  0
    3.0788    1.8562    0.0000 C   0  0  0  0  0  0  0  0  0  0  0  0
    1.6499    0.2062    0.0000 C   0  0  0  0  0  0  0  0  0  0  0  0
    1.6499   -0.6188    0.0000 C   0  0  0  0  0  0  0  0  0  0  0  0
  1  2  1  0  0  0  0
  3  2  1  0  0  0  0
  4  3  2  0  0  0  0
  5  4  1  0  0  0  0
  5  6  1  0  0  0  0
  6  7  2  0  0  0  0
  6  8  1  0  0  0  0
  9  5  2  0  0  0  0
 10  9  1  0  0  0  0
  2 10  2  0  0  0  0
M  END
> <ChemID>
100986

> <CAS>
1712-70-5

> <Original_SMILES>
CC(=C)c1ccc(Cl)cc1

> <preferred_name>
4-Chloro-alpha-methylstyrene

> <dsstox_substance_id>
DTXSID40169024

> <dsstox_compound_id>
DTXCID5091515

> <qc_level>
Public_Medium

> <Canonical_QSARr>
CC(=C)C1C=CC(Cl)=CC=1

> <InChI_Code_QSARr>
InChI=1S/C9H9Cl/c1-7(2)8-3-5-9(10)6-4-8/h3-6H,1H2,2H3

> <InChI Key_QSARr>
WQDGTJOEMPEHHL-UHFFFAOYSA-N

> <Salt_Solvent>


> <Salt_Solvent_ID>
0

> <MPID>
100979

> <Tr_1_Tst_0>
1

> <Ready_Biodeg>
0.0

$$$$
Row951
  Mrv171c012251911052D          

 18 20  0  0  0  0            999 V2000
    0.0016   -0.0014    0.0000 Cl  0  0  0  0  0  0  0  0  0  0  0  0
    0.7161   -0.4139    0.0000 C   0  0  0  0  0  0  0  0  0  0  0  0
    0.7161   -1.2389    0.0000 C   0  0  0  0  0  0  0  0  0  0  0  0
    0.0016   -1.6514    0.0000 Cl  0  0  0  0  0  0  0  0  0  0  0  0
    1.4305   -1.6514    0.0000 C   0  0  0  0  0  0  0  0  0  0  0  0
    2.1450   -1.2389    0.0000 C   0  0  0  0  0  0  0  0  0  0  0  0
    2.8595   -1.6514    0.0000 O   0  0  0  0  0  0  0  0  0  0  0  0
    3.5740   -1.2389    0.0000 C   0  0  0  0  0  0  0  0  0  0  0  0
    4.2884   -1.6514    0.0000 C   0  0  0  0  0  0  0  0  0  0  0  0
    5.0029   -1.2389    0.0000 C   0  0  0  0  0  0  0  0  0  0  0  0
    5.7174   -1.6514    0.0000 Cl  0  0  0  0  0  0  0  0  0  0  0  0
    5.0029   -0.4139    0.0000 C   0  0  0  0  0  0  0  0  0  0  0  0
    5.7174   -0.0014    0.0000 Cl  0  0  0  0  0  0  0  0  0  0  0  0
    4.2884   -0.0014    0.0000 C   0  0  0  0  0  0  0  0  0  0  0  0
    3.5740   -0.4139    0.0000 C   0  0  0  0  0  0  0  0  0  0  0  0
    2.8595   -0.0014    0.0000 O   0  0  0  0  0  0  0  0  0  0  0  0
    2.1450   -0.4139    0.0000 C   0  0  0  0  0  0  0  0  0  0  0  0
    1.4305   -0.0014    0.0000 C   0  0  0  0  0  0  0  0  0  0  0  0
  1  2  1  0  0  0  0
  3  2  1  0  0  0  0
  3  4  1  0  0  0  0
  5  3  2  0  0  0  0
  6  5  1  0  0  0  0
  6  7  1  0  0  0  0
  7  8  1  0  0  0  0
  9  8  1  0  0  0  0
 10  9  2  0  0  0  0
 10 11  1  0  0  0  0
 12 10  1  0  0  0  0
 12 13  1  0  0  0  0
 14 12  2  0  0  0  0
 15 14  1  0  0  0  0
  8 15  2  0  0  0  0
 15 16  1  0  0  0  0
 16 17  1  0  0  0  0
 17  6  2  0  0  0  0
 18 17  1  0  0  0  0
  2 18  2  0  0  0  0
M  END
> <ChemID>
100987

> <CAS>
1746-01-6

> <Original_SMILES>
Clc1cc2Oc3cc(Cl)c(Cl)cc3Oc2cc1Cl

> <preferred_name>
2,3,7,8-Tetrachlorodibenzo-p-dioxin

> <dsstox_substance_id>
DTXSID2021315

> <dsstox_compound_id>
DTXCID001315

> <qc_level>
DSSTox_Low

> <Canonical_QSARr>
ClC1=CC2OC3C=C(Cl)C(Cl)=CC=3OC=2C=C1Cl

> <InChI_Code_QSARr>
InChI=1S/C12H4Cl4O2/c13-5-1-9-10(2-6(5)14)18-12-4-8(16)7(15)3-11(12)17-9/h1-4H

> <InChI Key_QSARr>
HGUFODBRKLSHSI-UHFFFAOYSA-N

> <Salt_Solvent>


> <Salt_Solvent_ID>
0

> <MPID>
100980

> <Tr_1_Tst_0>
0

> <Ready_Biodeg>
0.0

$$$$
Row952
  Mrv171c012251911052D          

 10 10  0  0  0  0            999 V2000
    2.0068   -2.2268    0.0000 C   0  0  0  0  0  0  0  0  0  0  0  0
    1.2923   -2.6393    0.0000 O   0  0  0  0  0  0  0  0  0  0  0  0
    2.0068   -1.4018    0.0000 C   0  0  0  0  0  0  0  0  0  0  0  0
    2.7213   -0.9893    0.0000 C   0  0  0  0  0  0  0  0  0  0  0  0
    2.7213   -0.1643    0.0000 C   0  0  0  0  0  0  0  0  0  0  0  0
    2.0068    0.2482    0.0000 C   0  0  0  0  0  0  0  0  0  0  0  0
    2.0068    1.0732    0.0000 Cl  0  0  0  0  0  0  0  0  0  0  0  0
    1.2923   -0.1643    0.0000 C   0  0  0  0  0  0  0  0  0  0  0  0
    1.2923   -0.9893    0.0000 C   0  0  0  0  0  0  0  0  0  0  0  0
    0.5778   -1.4018    0.0000 Cl  0  0  0  0  0  0  0  0  0  0  0  0
  1  2  1  0  0  0  0
  1  3  1  0  0  0  0
  4  3  1  0  0  0  0
  5  4  2  0  0  0  0
  6  5  1  0  0  0  0
  6  7  1  0  0  0  0
  8  6  2  0  0  0  0
  9  8  1  0  0  0  0
  3  9  2  0  0  0  0
  9 10  1  0  0  0  0
M  END
> <ChemID>
100988

> <CAS>
1777-82-8

> <Original_SMILES>
OCc1ccc(Cl)cc1Cl

> <preferred_name>
2,4-Dichlorobenzyl alcohol

> <dsstox_substance_id>
DTXSID9041362

> <dsstox_compound_id>
DTXCID7021362

> <qc_level>
DSSTox_Low

> <Canonical_QSARr>
OCC1C=CC(Cl)=CC=1Cl

> <InChI_Code_QSARr>
InChI=1S/C7H6Cl2O/c8-6-2-1-5(4-10)7(9)3-6/h1-3,10H,4H2

> <InChI Key_QSARr>
DBHODFSFBXJZNY-UHFFFAOYSA-N

> <Salt_Solvent>


> <Salt_Solvent_ID>
0

> <MPID>
100981

> <Tr_1_Tst_0>
1

> <Ready_Biodeg>
1.0

$$$$
Row953
  Mrv171c012251911052D          

 15 15  0  0  0  0            999 V2000
    1.0583   -0.8415    0.0000 C   0  0  0  0  0  0  0  0  0  0  0  0
    0.3439   -0.4290    0.0000 O   0  0  0  0  0  0  0  0  0  0  0  0
    1.0583   -1.6665    0.0000 C   0  0  0  0  0  0  0  0  0  0  0  0
    1.7728   -2.0790    0.0000 C   0  0  0  0  0  0  0  0  0  0  0  0
    2.4873   -1.6665    0.0000 C   0  0  0  0  0  0  0  0  0  0  0  0
    3.2017   -2.0790    0.0000 C   0  0  0  0  0  0  0  0  0  0  0  0
    3.9162   -1.6665    0.0000 C   0  0  0  0  0  0  0  0  0  0  0  0
    4.6307   -2.0790    0.0000 C   0  0  0  0  0  0  0  0  0  0  0  0
    5.3452   -1.6665    0.0000 C   0  0  0  0  0  0  0  0  0  0  0  0
    6.0596   -2.0790    0.0000 C   0  0  0  0  0  0  0  0  0  0  0  0
    6.7741   -1.6665    0.0000 C   0  0  0  0  0  0  0  0  0  0  0  0
    7.4886   -2.0790    0.0000 C   0  0  0  0  0  0  0  0  0  0  0  0
    8.2030   -1.6665    0.0000 C   0  0  0  0  0  0  0  0  0  0  0  0
    2.4873   -0.8415    0.0000 C   0  0  0  0  0  0  0  0  0  0  0  0
    1.7728   -0.4290    0.0000 C   0  0  0  0  0  0  0  0  0  0  0  0
  1  2  1  0  0  0  0
  3  1  1  0  0  0  0
  4  3  2  0  0  0  0
  5  4  1  0  0  0  0
  5  6  1  0  0  0  0
  6  7  1  0  0  0  0
  7  8  1  0  0  0  0
  8  9  1  0  0  0  0
  9 10  1  0  0  0  0
 10 11  1  0  0  0  0
 11 12  1  0  0  0  0
 12 13  1  0  0  0  0
 14  5  2  0  0  0  0
 15 14  1  0  0  0  0
  1 15  2  0  0  0  0
M  END
> <ChemID>
100990

> <CAS>
1806-26-4

> <Original_SMILES>
CCCCCCCCc1ccc(O)cc1

> <preferred_name>
4-Octylphenol

> <dsstox_substance_id>
DTXSID9022312

> <dsstox_compound_id>
DTXCID902312

> <qc_level>
DSSTox_Low

> <Canonical_QSARr>
CCCCCCCCC1C=CC(O)=CC=1

> <InChI_Code_QSARr>
InChI=1S/C14H22O/c1-2-3-4-5-6-7-8-13-9-11-14(15)12-10-13/h9-12,15H,2-8H2,1H3

> <InChI Key_QSARr>
NTDQQZYCCIDJRK-UHFFFAOYSA-N

> <Salt_Solvent>


> <Salt_Solvent_ID>
0

> <MPID>
100982

> <Tr_1_Tst_0>
1

> <Ready_Biodeg>
0.0

$$$$
Row954
  Mrv171c012251911052D          

 16 16  0  0  0  0            999 V2000
    2.5965    2.7069    0.0000 Cl  0  0  0  0  0  0  0  0  0  0  0  0
    3.0090    1.9924    0.0000 C   0  0  0  0  0  0  0  0  0  0  0  0
    2.5965    1.2780    0.0000 C   0  0  0  0  0  0  0  0  0  0  0  0
    3.0090    0.5635    0.0000 C   0  0  0  0  0  0  0  0  0  0  0  0
    3.8340    0.5635    0.0000 C   0  0  0  0  0  0  0  0  0  0  0  0
    4.2465   -0.1510    0.0000 S   0  0  0  0  0  0  0  0  0  0  0  0
    5.0715   -0.1510    0.0000 C   0  0  0  0  0  0  0  0  0  0  0  0
    5.4840   -0.8655    0.0000 C   0  0  0  0  0  0  0  0  0  0  0  0
    6.3090   -0.8655    0.0000 N   0  0  0  0  0  0  0  0  0  0  0  0
    6.7215   -1.5799    0.0000 C   0  0  0  0  0  0  0  0  0  0  0  0
    7.5465   -1.5799    0.0000 C   0  0  0  0  0  0  0  0  0  0  0  0
    6.7215   -0.1510    0.0000 C   0  0  0  0  0  0  0  0  0  0  0  0
    7.5465   -0.1510    0.0000 C   0  0  0  0  0  0  0  0  0  0  0  0
    5.0715   -1.5799    0.0000 O   0  0  0  0  0  0  0  0  0  0  0  0
    4.2465    1.2780    0.0000 N   0  0  0  0  0  0  0  0  0  0  0  0
    3.8340    1.9924    0.0000 N   0  0  0  0  0  0  0  0  0  0  0  0
  1  2  1  0  0  0  0
  3  2  1  0  0  0  0
  4  3  2  0  0  0  0
  5  4  1  0  0  0  0
  5  6  1  0  0  0  0
  6  7  1  0  0  0  0
  7  8  1  0  0  0  0
  8  9  1  0  0  0  0
  9 10  1  0  0  0  0
 10 11  1  0  0  0  0
  9 12  1  0  0  0  0
 12 13  1  0  0  0  0
  8 14  2  0  0  0  0
 15  5  2  0  0  0  0
 16 15  1  0  0  0  0
  2 16  2  0  0  0  0
M  END
> <ChemID>
100991

> <CAS>
1830-32-6

> <Original_SMILES>
CCN(CC)C(=O)CSc1ccc(Cl)[n][n]1

> <preferred_name>
Azintamide

> <dsstox_substance_id>
DTXSID50171370

> <dsstox_compound_id>
DTXCID8093861

> <qc_level>
Public_Medium

> <Canonical_QSARr>
CCN(CC)C(=O)CSC1C=CC(Cl)=NN=1

> <InChI_Code_QSARr>
InChI=1S/C10H14ClN3OS/c1-3-14(4-2)10(15)7-16-9-6-5-8(11)12-13-9/h5-6H,3-4,7H2,1-2H3

> <InChI Key_QSARr>
SSLKKMZJCJBOML-UHFFFAOYSA-N

> <Salt_Solvent>


> <Salt_Solvent_ID>
0

> <MPID>
100983

> <Tr_1_Tst_0>
1

> <Ready_Biodeg>
0.0

$$$$
Row955
  Mrv171c012251911052D          

 18 19  0  0  0  0            999 V2000
    3.4971   -1.1017    0.0000 Cl  0  0  0  0  0  0  0  0  0  0  0  0
    2.7826   -0.6892    0.0000 C   0  0  0  0  0  0  0  0  0  0  0  0
    2.7826    0.1358    0.0000 C   0  0  0  0  0  0  0  0  0  0  0  0
    2.0681    0.5483    0.0000 C   0  0  0  0  0  0  0  0  0  0  0  0
    2.0681    1.3733    0.0000 Cl  0  0  0  0  0  0  0  0  0  0  0  0
    1.3537    0.1358    0.0000 C   0  0  0  0  0  0  0  0  0  0  0  0
    1.3537   -0.6892    0.0000 C   0  0  0  0  0  0  0  0  0  0  0  0
    2.0681   -1.1017    0.0000 C   0  0  0  0  0  0  0  0  0  0  0  0
    2.0681   -1.9267    0.0000 O   0  0  0  0  0  0  0  0  0  0  0  0
    2.7826   -2.3392    0.0000 C   0  0  0  0  0  0  0  0  0  0  0  0
    2.7826   -3.1642    0.0000 C   0  0  0  0  0  0  0  0  0  0  0  0
    3.4971   -3.5767    0.0000 C   0  0  0  0  0  0  0  0  0  0  0  0
    4.2115   -3.1642    0.0000 C   0  0  0  0  0  0  0  0  0  0  0  0
    4.9260   -3.5767    0.0000 N   0  3  0  0  0  0  0  0  0  0  0  0
    5.6405   -3.1642    0.0000 O   0  5  0  0  0  0  0  0  0  0  0  0
    4.9260   -4.4017    0.0000 O   0  0  0  0  0  0  0  0  0  0  0  0
    4.2115   -2.3392    0.0000 C   0  0  0  0  0  0  0  0  0  0  0  0
    3.4971   -1.9267    0.0000 C   0  0  0  0  0  0  0  0  0  0  0  0
  1  2  1  0  0  0  0
  3  2  1  0  0  0  0
  4  3  2  0  0  0  0
  4  5  1  0  0  0  0
  6  4  1  0  0  0  0
  7  6  2  0  0  0  0
  8  7  1  0  0  0  0
  2  8  2  0  0  0  0
  8  9  1  0  0  0  0
  9 10  1  0  0  0  0
 11 10  1  0  0  0  0
 12 11  2  0  0  0  0
 13 12  1  0  0  0  0
 13 14  1  0  0  0  0
 14 15  1  0  0  0  0
 14 16  2  0  0  0  0
 17 13  2  0  0  0  0
 18 17  1  0  0  0  0
 10 18  2  0  0  0  0
M  CHG  2  14   1  15  -1
M  END
> <ChemID>
100992

> <CAS>
1836-75-5

> <Original_SMILES>
[O-][N+](=O)c1ccc(cc1)Oc1ccc(Cl)cc1Cl

> <preferred_name>
Nitrofen

> <dsstox_substance_id>
DTXSID7020970

> <dsstox_compound_id>
DTXCID30970

> <qc_level>
DSSTox_Low

> <Canonical_QSARr>
[O-][N+](=O)C1C=CC(=CC=1)OC1C=CC(Cl)=CC=1Cl

> <InChI_Code_QSARr>
InChI=1S/C12H7Cl2NO3/c13-8-1-6-12(11(14)7-8)18-10-4-2-9(3-5-10)15(16)17/h1-7H

> <InChI Key_QSARr>
XITQUSLLOSKDTB-UHFFFAOYSA-N

> <Salt_Solvent>


> <Salt_Solvent_ID>
0

> <MPID>
100984

> <Tr_1_Tst_0>
0

> <Ready_Biodeg>
0.0

$$$$
Row956
  Mrv171c012251911052D          

 19 20  0  0  0  0            999 V2000
    4.7822   -2.7606    0.0000 C   0  0  0  0  0  0  0  0  0  0  0  0
    5.4967   -2.3481    0.0000 Cl  0  0  0  0  0  0  0  0  0  0  0  0
    4.0678   -2.3481    0.0000 C   0  0  0  0  0  0  0  0  0  0  0  0
    4.0678   -1.5231    0.0000 O   0  0  0  0  0  0  0  0  0  0  0  0
    3.3533   -1.1106    0.0000 C   0  0  0  0  0  0  0  0  0  0  0  0
    3.3533   -0.2856    0.0000 C   0  0  0  0  0  0  0  0  0  0  0  0
    2.6388    0.1269    0.0000 C   0  0  0  0  0  0  0  0  0  0  0  0
    1.9244   -0.2856    0.0000 C   0  0  0  0  0  0  0  0  0  0  0  0
    1.2099    0.1269    0.0000 N   0  3  0  0  0  0  0  0  0  0  0  0
    0.4954   -0.2856    0.0000 O   0  0  0  0  0  0  0  0  0  0  0  0
    1.2099    0.9519    0.0000 O   0  5  0  0  0  0  0  0  0  0  0  0
    1.9244   -1.1106    0.0000 C   0  0  0  0  0  0  0  0  0  0  0  0
    2.6388   -1.5231    0.0000 C   0  0  0  0  0  0  0  0  0  0  0  0
    3.3533   -2.7606    0.0000 C   0  0  0  0  0  0  0  0  0  0  0  0
    2.6388   -2.3481    0.0000 Cl  0  0  0  0  0  0  0  0  0  0  0  0
    3.3533   -3.5856    0.0000 C   0  0  0  0  0  0  0  0  0  0  0  0
    4.0678   -3.9981    0.0000 C   0  0  0  0  0  0  0  0  0  0  0  0
    4.0678   -4.8231    0.0000 Cl  0  0  0  0  0  0  0  0  0  0  0  0
    4.7822   -3.5856    0.0000 C   0  0  0  0  0  0  0  0  0  0  0  0
  1  2  1  0  0  0  0
  3  1  2  0  0  0  0
  3  4  1  0  0  0  0
  4  5  1  0  0  0  0
  6  5  1  0  0  0  0
  7  6  2  0  0  0  0
  8  7  1  0  0  0  0
  8  9  1  0  0  0  0
  9 10  2  0  0  0  0
  9 11  1  0  0  0  0
 12  8  2  0  0  0  0
 13 12  1  0  0  0  0
  5 13  2  0  0  0  0
 14  3  1  0  0  0  0
 14 15  1  0  0  0  0
 16 14  2  0  0  0  0
 17 16  1  0  0  0  0
 17 18  1  0  0  0  0
 19 17  2  0  0  0  0
  1 19  1  0  0  0  0
M  CHG  2   9   1  11  -1
M  END
> <ChemID>
100993

> <CAS>
1836-77-7

> <Original_SMILES>
[O-][N+](=O)c1ccc(cc1)Oc1c(Cl)cc(Cl)cc1Cl

> <preferred_name>
Chlornitrofen

> <dsstox_substance_id>
DTXSID0041775

> <dsstox_compound_id>
DTXCID8021775

> <qc_level>
DSSTox_Low

> <Canonical_QSARr>
[O-][N+](=O)C1C=CC(=CC=1)OC1C(Cl)=CC(Cl)=CC=1Cl

> <InChI_Code_QSARr>
InChI=1S/C12H6Cl3NO3/c13-7-5-10(14)12(11(15)6-7)19-9-3-1-8(2-4-9)16(17)18/h1-6H

> <InChI Key_QSARr>
XQNAUQUKWRBODG-UHFFFAOYSA-N

> <Salt_Solvent>


> <Salt_Solvent_ID>
0

> <MPID>
100985

> <Tr_1_Tst_0>
1

> <Ready_Biodeg>
0.0

$$$$
Row957
  Mrv171c012251911052D          

 24 25  0  0  0  0            999 V2000
    4.2846   -2.8208    0.0000 C   0  0  0  0  0  0  0  0  0  0  0  0
    3.5701   -2.4083    0.0000 C   0  0  0  0  0  0  0  0  0  0  0  0
    3.5701   -1.5833    0.0000 C   0  0  0  0  0  0  0  0  0  0  0  0
    2.8557   -1.1708    0.0000 C   0  0  0  0  0  0  0  0  0  0  0  0
    2.1412   -1.5833    0.0000 C   0  0  0  0  0  0  0  0  0  0  0  0
    2.1412   -2.4083    0.0000 C   0  0  0  0  0  0  0  0  0  0  0  0
    2.8557   -2.8208    0.0000 C   0  0  0  0  0  0  0  0  0  0  0  0
    4.9991   -2.4083    0.0000 C   0  0  0  0  0  0  0  0  0  0  0  0
    5.7136   -2.8208    0.0000 C   0  0  0  0  0  0  0  0  0  0  0  0
    6.4280   -2.4083    0.0000 C   0  0  0  0  0  0  0  0  0  0  0  0
    6.4280   -1.5833    0.0000 C   0  0  0  0  0  0  0  0  0  0  0  0
    7.1425   -1.1708    0.0000 O   0  0  0  0  0  0  0  0  0  0  0  0
    7.8570   -1.5833    0.0000 C   0  0  0  0  0  0  0  0  0  0  0  0
    8.5714   -1.1708    0.0000 C   0  0  0  0  0  0  0  0  0  0  0  0
    9.2859   -1.5833    0.0000 C   0  0  0  0  0  0  0  0  0  0  0  0
   10.0004   -1.1708    0.0000 C   0  0  0  0  0  0  0  0  0  0  0  0
   10.7148   -1.5833    0.0000 C   0  0  0  0  0  0  0  0  0  0  0  0
   11.4293   -1.1708    0.0000 C   0  0  0  0  0  0  0  0  0  0  0  0
   12.1438   -1.5833    0.0000 C   0  0  0  0  0  0  0  0  0  0  0  0
   12.8583   -1.1708    0.0000 C   0  0  0  0  0  0  0  0  0  0  0  0
    5.7136   -1.1708    0.0000 C   0  0  0  0  0  0  0  0  0  0  0  0
    4.9991   -1.5833    0.0000 C   0  0  0  0  0  0  0  0  0  0  0  0
    4.2846   -1.1708    0.0000 O   0  0  0  0  0  0  0  0  0  0  0  0
    4.2846   -3.6458    0.0000 O   0  0  0  0  0  0  0  0  0  0  0  0
  1  2  1  0  0  0  0
  3  2  1  0  0  0  0
  4  3  2  0  0  0  0
  5  4  1  0  0  0  0
  6  5  2  0  0  0  0
  7  6  1  0  0  0  0
  2  7  2  0  0  0  0
  1  8  1  0  0  0  0
  9  8  1  0  0  0  0
 10  9  2  0  0  0  0
 11 10  1  0  0  0  0
 11 12  1  0  0  0  0
 12 13  1  0  0  0  0
 13 14  1  0  0  0  0
 14 15  1  0  0  0  0
 15 16  1  0  0  0  0
 16 17  1  0  0  0  0
 17 18  1  0  0  0  0
 18 19  1  0  0  0  0
 19 20  1  0  0  0  0
 21 11  2  0  0  0  0
 22 21  1  0  0  0  0
  8 22  2  0  0  0  0
 22 23  1  0  0  0  0
  1 24  2  0  0  0  0
M  END
> <ChemID>
100994

> <CAS>
1843-05-6

> <Original_SMILES>
CCCCCCCCOc1cc(O)c(cc1)C(=O)c1ccccc1

> <preferred_name>
Octabenzone

> <dsstox_substance_id>
DTXSID9027441

> <dsstox_compound_id>
DTXCID107441

> <qc_level>
DSSTox_Low

> <Canonical_QSARr>
CCCCCCCCOC1=CC(O)=C(C=C1)C(=O)C1C=CC=CC=1

> <InChI_Code_QSARr>
InChI=1S/C21H26O3/c1-2-3-4-5-6-10-15-24-18-13-14-19(20(22)16-18)21(23)17-11-8-7-9-12-17/h7-9,11-14,16,22H,2-6,10,15H2,1H3

> <InChI Key_QSARr>
QUAMTGJKVDWJEQ-UHFFFAOYSA-N

> <Salt_Solvent>


> <Salt_Solvent_ID>
0

> <MPID>
100986

> <Tr_1_Tst_0>
1

> <Ready_Biodeg>
0.0

$$$$
Row958
  Mrv171c012251911052D          

 18 18  0  0  0  0            999 V2000
    2.1489   -1.6389    0.0000 C   0  0  0  0  0  0  0  0  0  0  0  0
    2.8633   -1.2264    0.0000 C   0  0  0  0  0  0  0  0  0  0  0  0
    3.5778   -1.6389    0.0000 O   0  0  0  0  0  0  0  0  0  0  0  0
    4.2923   -1.2264    0.0000 C   0  0  0  0  0  0  0  0  0  0  0  0
    2.8633   -0.4014    0.0000 O   0  0  0  0  0  0  0  0  0  0  0  0
    1.4344   -1.2264    0.0000 C   0  0  0  0  0  0  0  0  0  0  0  0
    1.4344   -0.4014    0.0000 Cl  0  0  0  0  0  0  0  0  0  0  0  0
    0.7199   -1.6389    0.0000 C   0  0  0  0  0  0  0  0  0  0  0  0
    0.0055   -1.2264    0.0000 Cl  0  0  0  0  0  0  0  0  0  0  0  0
    0.7199   -2.4639    0.0000 C   0  0  0  0  0  0  0  0  0  0  0  0
    0.0055   -2.8764    0.0000 C   0  0  0  0  0  0  0  0  0  0  0  0
   -0.7090   -2.4639    0.0000 O   0  0  0  0  0  0  0  0  0  0  0  0
   -1.4235   -2.8764    0.0000 C   0  0  0  0  0  0  0  0  0  0  0  0
    0.0055   -3.7014    0.0000 O   0  0  0  0  0  0  0  0  0  0  0  0
    1.4344   -2.8764    0.0000 C   0  0  0  0  0  0  0  0  0  0  0  0
    1.4344   -3.7014    0.0000 Cl  0  0  0  0  0  0  0  0  0  0  0  0
    2.1489   -2.4639    0.0000 C   0  0  0  0  0  0  0  0  0  0  0  0
    2.8633   -2.8764    0.0000 Cl  0  0  0  0  0  0  0  0  0  0  0  0
  1  2  1  0  0  0  0
  2  3  1  0  0  0  0
  3  4  1  0  0  0  0
  2  5  2  0  0  0  0
  6  1  1  0  0  0  0
  6  7  1  0  0  0  0
  8  6  2  0  0  0  0
  8  9  1  0  0  0  0
 10  8  1  0  0  0  0
 10 11  1  0  0  0  0
 11 12  1  0  0  0  0
 12 13  1  0  0  0  0
 11 14  2  0  0  0  0
 15 10  2  0  0  0  0
 15 16  1  0  0  0  0
 17 15  1  0  0  0  0
  1 17  2  0  0  0  0
 17 18  1  0  0  0  0
M  END
> <ChemID>
100995

> <CAS>
1861-32-1

> <Original_SMILES>
COC(=O)c1c(Cl)c(Cl)c(c(Cl)c1Cl)C(=O)OC

> <preferred_name>
Chlorthal-dimethyl

> <dsstox_substance_id>
DTXSID0024000

> <dsstox_compound_id>
DTXCID404000

> <qc_level>
DSSTox_Low

> <Canonical_QSARr>
COC(=O)C1=C(Cl)C(Cl)=C(C(Cl)=C1Cl)C(=O)OC

> <InChI_Code_QSARr>
InChI=1S/C10H6Cl4O4/c1-17-9(15)3-5(11)7(13)4(10(16)18-2)8(14)6(3)12/h1-2H3

> <InChI Key_QSARr>
NPOJQCVWMSKXDN-UHFFFAOYSA-N

> <Salt_Solvent>


> <Salt_Solvent_ID>
0

> <MPID>
100987

> <Tr_1_Tst_0>
1

> <Ready_Biodeg>
0.0

$$$$
Row959
  Mrv171c012251911052D          

 23 23  0  0  0  0            999 V2000
    3.7441   -1.9127    0.0000 C   0  0  0  0  0  0  0  0  0  0  0  0
    4.1566   -1.1982    0.0000 C   0  0  0  0  0  0  0  0  0  0  0  0
    3.7441   -0.4838    0.0000 C   0  0  0  0  0  0  0  0  0  0  0  0
    4.1566    0.2307    0.0000 C   0  0  0  0  0  0  0  0  0  0  0  0
    4.5691    0.9452    0.0000 F   0  0  0  0  0  0  0  0  0  0  0  0
    3.4421    0.6432    0.0000 F   0  0  0  0  0  0  0  0  0  0  0  0
    4.8711   -0.1818    0.0000 F   0  0  0  0  0  0  0  0  0  0  0  0
    2.9191   -0.4838    0.0000 C   0  0  0  0  0  0  0  0  0  0  0  0
    2.5066   -1.1982    0.0000 C   0  0  0  0  0  0  0  0  0  0  0  0
    1.6816   -1.1982    0.0000 N   0  3  0  0  0  0  0  0  0  0  0  0
    1.2691   -1.9127    0.0000 O   0  0  0  0  0  0  0  0  0  0  0  0
    1.2691   -0.4838    0.0000 O   0  5  0  0  0  0  0  0  0  0  0  0
    2.9191   -1.9127    0.0000 C   0  0  0  0  0  0  0  0  0  0  0  0
    2.5066   -2.6272    0.0000 N   0  0  0  0  0  0  0  0  0  0  0  0
    1.6816   -2.6272    0.0000 C   0  0  0  0  0  0  0  0  0  0  0  0
    1.2691   -3.3416    0.0000 C   0  0  0  0  0  0  0  0  0  0  0  0
    0.4441   -3.3416    0.0000 C   0  0  0  0  0  0  0  0  0  0  0  0
    0.0316   -4.0561    0.0000 C   0  0  0  0  0  0  0  0  0  0  0  0
    2.9191   -3.3416    0.0000 C   0  0  0  0  0  0  0  0  0  0  0  0
    2.5066   -4.0561    0.0000 C   0  0  0  0  0  0  0  0  0  0  0  0
    4.1566   -2.6272    0.0000 N   0  3  0  0  0  0  0  0  0  0  0  0
    3.7441   -3.3416    0.0000 O   0  0  0  0  0  0  0  0  0  0  0  0
    4.9816   -2.6272    0.0000 O   0  5  0  0  0  0  0  0  0  0  0  0
  2  1  1  0  0  0  0
  3  2  2  0  0  0  0
  3  4  1  0  0  0  0
  4  5  1  0  0  0  0
  4  6  1  0  0  0  0
  4  7  1  0  0  0  0
  8  3  1  0  0  0  0
  9  8  2  0  0  0  0
  9 10  1  0  0  0  0
 10 11  2  0  0  0  0
 10 12  1  0  0  0  0
 13  9  1  0  0  0  0
  1 13  2  0  0  0  0
 13 14  1  0  0  0  0
 14 15  1  0  0  0  0
 15 16  1  0  0  0  0
 16 17  1  0  0  0  0
 17 18  1  0  0  0  0
 14 19  1  0  0  0  0
 19 20  1  0  0  0  0
  1 21  1  0  0  0  0
 21 22  2  0  0  0  0
 21 23  1  0  0  0  0
M  CHG  4  10   1  12  -1  21   1  23  -1
M  END
> <ChemID>
100996

> <CAS>
1861-40-1

> <Original_SMILES>
CCCCN(CC)c1c(cc(cc1[N+]([O-])=O)C(F)(F)F)[N+]([O-])=O

> <preferred_name>
Benfluralin

> <dsstox_substance_id>
DTXSID3023899

> <dsstox_compound_id>
DTXCID203899

> <qc_level>
DSSTox_Low

> <Canonical_QSARr>
CCCCN(CC)C1C(=CC(=CC=1[N+]([O-])=O)C(F)(F)F)[N+]([O-])=O

> <InChI_Code_QSARr>
InChI=1S/C13H16F3N3O4/c1-3-5-6-17(4-2)12-10(18(20)21)7-9(13(14,15)16)8-11(12)19(22)23/h7-8H,3-6H2,1-2H3

> <InChI Key_QSARr>
SMDHCQAYESWHAE-UHFFFAOYSA-N

> <Salt_Solvent>


> <Salt_Solvent_ID>
0

> <MPID>
100988

> <Tr_1_Tst_0>
0

> <Ready_Biodeg>
0.0

$$$$
Row960
  Mrv171c012251911052D          

 22 22  0  0  0  0            999 V2000
    1.2735   -0.6188    0.0000 S   0  0  0  0  0  0  0  0  0  0  0  0
    0.5590   -1.0313    0.0000 C   0  0  0  0  0  0  0  0  0  0  0  0
   -0.1555   -0.6188    0.0000 C   0  0  0  0  0  0  0  0  0  0  0  0
   -0.8699   -1.0313    0.0000 C   0  0  0  0  0  0  0  0  0  0  0  0
   -0.8699   -1.8563    0.0000 C   0  0  0  0  0  0  0  0  0  0  0  0
   -0.1555   -2.2688    0.0000 C   0  0  0  0  0  0  0  0  0  0  0  0
    0.5590   -1.8563    0.0000 C   0  0  0  0  0  0  0  0  0  0  0  0
    1.6860   -1.3332    0.0000 O   0  0  0  0  0  0  0  0  0  0  0  0
    0.8610    0.0957    0.0000 O   0  0  0  0  0  0  0  0  0  0  0  0
    1.9879   -0.2063    0.0000 O   0  0  0  0  0  0  0  0  0  0  0  0
    2.7024   -0.6188    0.0000 C   0  0  0  0  0  0  0  0  0  0  0  0
    3.4169   -0.2063    0.0000 C   0  0  0  0  0  0  0  0  0  0  0  0
    4.1314   -0.6188    0.0000 C   0  0  0  0  0  0  0  0  0  0  0  0
    4.8458   -0.2063    0.0000 C   0  0  0  0  0  0  0  0  0  0  0  0
    5.5603   -0.6188    0.0000 C   0  0  0  0  0  0  0  0  0  0  0  0
    6.2748   -0.2063    0.0000 C   0  0  0  0  0  0  0  0  0  0  0  0
    6.9892   -0.6188    0.0000 C   0  0  0  0  0  0  0  0  0  0  0  0
    7.7037   -0.2063    0.0000 C   0  0  0  0  0  0  0  0  0  0  0  0
    8.4182   -0.6188    0.0000 C   0  0  0  0  0  0  0  0  0  0  0  0
    9.1327   -0.2063    0.0000 C   0  0  0  0  0  0  0  0  0  0  0  0
    9.8471   -0.6188    0.0000 C   0  0  0  0  0  0  0  0  0  0  0  0
   10.5616   -0.2063    0.0000 C   0  0  0  0  0  0  0  0  0  0  0  0
  1  2  1  0  0  0  0
  3  2  1  0  0  0  0
  4  3  2  0  0  0  0
  5  4  1  0  0  0  0
  6  5  2  0  0  0  0
  7  6  1  0  0  0  0
  2  7  2  0  0  0  0
  1  8  2  0  0  0  0
  1  9  2  0  0  0  0
  1 10  1  0  0  0  0
 10 11  1  0  0  0  0
 11 12  1  0  0  0  0
 12 13  1  0  0  0  0
 13 14  1  0  0  0  0
 14 15  1  0  0  0  0
 15 16  1  0  0  0  0
 16 17  1  0  0  0  0
 17 18  1  0  0  0  0
 18 19  1  0  0  0  0
 19 20  1  0  0  0  0
 20 21  1  0  0  0  0
 21 22  1  0  0  0  0
M  END
> <ChemID>
100997

> <CAS>
121734-15-4

> <Original_SMILES>
CCCCCCCCCCCCOS(=O)(=O)c1ccccc1

> <preferred_name>
Dodecyl benzenesulfonate

> <dsstox_substance_id>
DTXSID30153351

> <dsstox_compound_id>
DTXCID7075842

> <qc_level>
Public_Medium

> <Canonical_QSARr>
CCCCCCCCCCCCOS(=O)(=O)C1C=CC=CC=1

> <InChI_Code_QSARr>
InChI=1S/C18H30O3S/c1-2-3-4-5-6-7-8-9-10-14-17-21-22(19,20)18-15-12-11-13-16-18/h11-13,15-16H,2-10,14,17H2,1H3

> <InChI Key_QSARr>
YRIUSKIDOIARQF-UHFFFAOYSA-N

> <Salt_Solvent>


> <Salt_Solvent_ID>
0

> <MPID>
100989

> <Tr_1_Tst_0>
1

> <Ready_Biodeg>
1.0

$$$$
Row961
  Mrv171c012251911052D          

 14 14  0  0  0  0            999 V2000
    3.0144   -1.2542    0.0000 Cl  0  0  0  0  0  0  0  0  0  0  0  0
    2.2999   -1.6667    0.0000 C   0  0  0  0  0  0  0  0  0  0  0  0
    1.5855   -1.2542    0.0000 C   0  0  0  0  0  0  0  0  0  0  0  0
    1.5855   -0.4292    0.0000 C   0  0  0  0  0  0  0  0  0  0  0  0
    1.5855    0.3958    0.0000 N   0  0  0  0  0  0  0  0  0  0  0  0
    0.8710   -1.6667    0.0000 C   0  0  0  0  0  0  0  0  0  0  0  0
    0.1565   -1.2542    0.0000 Cl  0  0  0  0  0  0  0  0  0  0  0  0
    0.8710   -2.4917    0.0000 C   0  0  0  0  0  0  0  0  0  0  0  0
    0.1565   -2.9042    0.0000 Cl  0  0  0  0  0  0  0  0  0  0  0  0
    1.5855   -2.9042    0.0000 C   0  0  0  0  0  0  0  0  0  0  0  0
    1.5855   -3.7292    0.0000 Cl  0  0  0  0  0  0  0  0  0  0  0  0
    2.2999   -2.4917    0.0000 C   0  0  0  0  0  0  0  0  0  0  0  0
    3.0144   -2.9042    0.0000 C   0  0  0  0  0  0  0  0  0  0  0  0
    3.7289   -3.3167    0.0000 N   0  0  0  0  0  0  0  0  0  0  0  0
  1  2  1  0  0  0  0
  3  2  1  0  0  0  0
  3  4  1  0  0  0  0
  4  5  3  0  0  0  0
  6  3  2  0  0  0  0
  6  7  1  0  0  0  0
  8  6  1  0  0  0  0
  8  9  1  0  0  0  0
 10  8  2  0  0  0  0
 10 11  1  0  0  0  0
 12 10  1  0  0  0  0
  2 12  2  0  0  0  0
 12 13  1  0  0  0  0
 13 14  3  0  0  0  0
M  END
> <ChemID>
100998

> <CAS>
1897-45-6

> <Original_SMILES>
N#Cc1c(Cl)c(Cl)c(Cl)c(C#N)c1Cl

> <preferred_name>
Chlorothalonil

> <dsstox_substance_id>
DTXSID0020319

> <dsstox_compound_id>
DTXCID20319

> <qc_level>
DSSTox_Low

> <Canonical_QSARr>
N#CC1C(Cl)=C(Cl)C(Cl)=C(C#N)C=1Cl

> <InChI_Code_QSARr>
InChI=1S/C8Cl4N2/c9-5-3(1-13)6(10)8(12)7(11)4(5)2-14

> <InChI Key_QSARr>
CRQQGFGUEAVUIL-UHFFFAOYSA-N

> <Salt_Solvent>


> <Salt_Solvent_ID>
0

> <MPID>
100990

> <Tr_1_Tst_0>
1

> <Ready_Biodeg>
1.0

$$$$
Row962
  Mrv171c012251911052D          

 14 14  0  0  0  0            999 V2000
    4.2587   -3.0942    0.0000 Cl  0  0  0  0  0  0  0  0  0  0  0  0
    3.5442   -2.6817    0.0000 C   0  0  0  0  0  0  0  0  0  0  0  0
    3.5442   -1.8567    0.0000 N   0  0  0  0  0  0  0  0  0  0  0  0
    2.8297   -1.4442    0.0000 C   0  0  0  0  0  0  0  0  0  0  0  0
    2.8297   -0.6192    0.0000 N   0  0  0  0  0  0  0  0  0  0  0  0
    3.5442   -0.2067    0.0000 C   0  0  0  0  0  0  0  0  0  0  0  0
    3.5442    0.6183    0.0000 C   0  0  0  0  0  0  0  0  0  0  0  0
    4.2587   -0.6192    0.0000 C   0  0  0  0  0  0  0  0  0  0  0  0
    2.1153   -1.8567    0.0000 N   0  0  0  0  0  0  0  0  0  0  0  0
    2.1153   -2.6817    0.0000 C   0  0  0  0  0  0  0  0  0  0  0  0
    1.4008   -3.0942    0.0000 N   0  0  0  0  0  0  0  0  0  0  0  0
    0.6863   -2.6817    0.0000 C   0  0  0  0  0  0  0  0  0  0  0  0
   -0.0282   -3.0942    0.0000 C   0  0  0  0  0  0  0  0  0  0  0  0
    2.8297   -3.0942    0.0000 N   0  0  0  0  0  0  0  0  0  0  0  0
  1  2  1  0  0  0  0
  3  2  1  0  0  0  0
  4  3  2  0  0  0  0
  4  5  1  0  0  0  0
  5  6  1  0  0  0  0
  6  7  1  0  0  0  0
  6  8  1  0  0  0  0
  9  4  1  0  0  0  0
 10  9  2  0  0  0  0
 10 11  1  0  0  0  0
 11 12  1  0  0  0  0
 12 13  1  0  0  0  0
 14 10  1  0  0  0  0
  2 14  2  0  0  0  0
M  END
> <ChemID>
100999

> <CAS>
1912-24-9

> <Original_SMILES>
CCNc1[n]c(Cl)[n]c(NC(C)C)[n]1

> <preferred_name>
Atrazine

> <dsstox_substance_id>
DTXSID9020112

> <dsstox_compound_id>
DTXCID90112

> <qc_level>
DSSTox_Low

> <Canonical_QSARr>
CCNC1N=C(Cl)N=C(NC(C)C)N=1

> <InChI_Code_QSARr>
InChI=1S/C8H14ClN5/c1-4-10-7-12-6(9)13-8(14-7)11-5(2)3/h5H,4H2,1-3H3,(H2,10,11,12,13,14)

> <InChI Key_QSARr>
MXWJVTOOROXGIU-UHFFFAOYSA-N

> <Salt_Solvent>


> <Salt_Solvent_ID>
0

> <MPID>
100991

> <Tr_1_Tst_0>
1

> <Ready_Biodeg>
0.0

$$$$
Row963
  Mrv171c012251911052D          

 13 13  0  0  0  0            999 V2000
    2.2719   -1.4320    0.0000 C   0  0  0  0  0  0  0  0  0  0  0  0
    2.9864   -1.0195    0.0000 C   0  0  0  0  0  0  0  0  0  0  0  0
    3.7008   -1.4320    0.0000 O   0  0  0  0  0  0  0  0  0  0  0  0
    2.9864   -0.1945    0.0000 O   0  0  0  0  0  0  0  0  0  0  0  0
    1.5574   -1.0195    0.0000 C   0  0  0  0  0  0  0  0  0  0  0  0
    1.5574   -0.1945    0.0000 Cl  0  0  0  0  0  0  0  0  0  0  0  0
    0.8429   -1.4320    0.0000 C   0  0  0  0  0  0  0  0  0  0  0  0
    0.1285   -1.0195    0.0000 N   0  0  0  0  0  0  0  0  0  0  0  0
    0.8429   -2.2570    0.0000 C   0  0  0  0  0  0  0  0  0  0  0  0
    0.1285   -2.6695    0.0000 Cl  0  0  0  0  0  0  0  0  0  0  0  0
    1.5574   -2.6695    0.0000 C   0  0  0  0  0  0  0  0  0  0  0  0
    1.5574   -3.4945    0.0000 Cl  0  0  0  0  0  0  0  0  0  0  0  0
    2.2719   -2.2570    0.0000 N   0  0  0  0  0  0  0  0  0  0  0  0
  1  2  1  0  0  0  0
  2  3  1  0  0  0  0
  2  4  2  0  0  0  0
  5  1  2  0  0  0  0
  5  6  1  0  0  0  0
  7  5  1  0  0  0  0
  7  8  1  0  0  0  0
  9  7  2  0  0  0  0
  9 10  1  0  0  0  0
 11  9  1  0  0  0  0
 11 12  1  0  0  0  0
 13 11  2  0  0  0  0
  1 13  1  0  0  0  0
M  END
> <ChemID>
101000

> <CAS>
1918-02-1

> <Original_SMILES>
Nc1c(Cl)c([n]c(Cl)c1Cl)C(O)=O

> <preferred_name>
Picloram

> <dsstox_substance_id>
DTXSID1021160

> <dsstox_compound_id>
DTXCID101160

> <qc_level>
DSSTox_Low

> <Canonical_QSARr>
NC1C(Cl)=C(N=C(Cl)C=1Cl)C(O)=O

> <InChI_Code_QSARr>
InChI=1S/C6H3Cl3N2O2/c7-1-3(10)2(8)5(9)11-4(1)6(12)13/h(H2,10,11)(H,12,13)

> <InChI Key_QSARr>
NQQVFXUMIDALNH-UHFFFAOYSA-N

> <Salt_Solvent>


> <Salt_Solvent_ID>
0

> <MPID>
100992

> <Tr_1_Tst_0>
0

> <Ready_Biodeg>
0.0

$$$$
Row964
  Mrv171c012251911052D          

 20 20  0  0  0  0            999 V2000
    2.4260   -1.5050    0.0000 C   0  0  0  0  0  0  0  0  0  0  0  0
    3.1405   -1.0925    0.0000 O   0  0  0  0  0  0  0  0  0  0  0  0
    3.8549   -1.5050    0.0000 C   0  0  0  0  0  0  0  0  0  0  0  0
    4.5694   -1.0925    0.0000 N   0  0  0  0  0  0  0  0  0  0  0  0
    5.2839   -1.5050    0.0000 C   0  0  0  0  0  0  0  0  0  0  0  0
    3.8549   -2.3300    0.0000 O   0  0  0  0  0  0  0  0  0  0  0  0
    1.7115   -1.0925    0.0000 C   0  0  0  0  0  0  0  0  0  0  0  0
    1.7115   -0.2675    0.0000 C   0  0  0  0  0  0  0  0  0  0  0  0
    1.7115    0.5575    0.0000 C   0  0  0  0  0  0  0  0  0  0  0  0
    0.8865   -0.2675    0.0000 C   0  0  0  0  0  0  0  0  0  0  0  0
    2.5365   -0.2675    0.0000 C   0  0  0  0  0  0  0  0  0  0  0  0
    0.9970   -1.5050    0.0000 C   0  0  0  0  0  0  0  0  0  0  0  0
    0.9970   -2.3300    0.0000 C   0  0  0  0  0  0  0  0  0  0  0  0
    0.2826   -2.7425    0.0000 C   0  0  0  0  0  0  0  0  0  0  0  0
    1.7115   -2.7425    0.0000 C   0  0  0  0  0  0  0  0  0  0  0  0
    2.4260   -2.3300    0.0000 C   0  0  0  0  0  0  0  0  0  0  0  0
    3.1405   -2.7425    0.0000 C   0  0  0  0  0  0  0  0  0  0  0  0
    3.8549   -3.1550    0.0000 C   0  0  0  0  0  0  0  0  0  0  0  0
    3.5530   -2.0280    0.0000 C   0  0  0  0  0  0  0  0  0  0  0  0
    2.7280   -3.4570    0.0000 C   0  0  0  0  0  0  0  0  0  0  0  0
  1  2  1  0  0  0  0
  2  3  1  0  0  0  0
  3  4  1  0  0  0  0
  4  5  1  0  0  0  0
  3  6  2  0  0  0  0
  7  1  1  0  0  0  0
  7  8  1  0  0  0  0
  8  9  1  0  0  0  0
  8 10  1  0  0  0  0
  8 11  1  0  0  0  0
 12  7  2  0  0  0  0
 13 12  1  0  0  0  0
 13 14  1  0  0  0  0
 15 13  2  0  0  0  0
 16 15  1  0  0  0  0
  1 16  2  0  0  0  0
 16 17  1  0  0  0  0
 17 18  1  0  0  0  0
 17 19  1  0  0  0  0
 17 20  1  0  0  0  0
M  END
> <ChemID>
101001

> <CAS>
1918-11-2

> <Original_SMILES>
Cc1cc(c(OC(=O)NC)c(c1)C(C)(C)C)C(C)(C)C

> <preferred_name>
Terbucarb

> <dsstox_substance_id>
DTXSID1042441

> <dsstox_compound_id>
DTXCID9022441

> <qc_level>
DSSTox_Low

> <Canonical_QSARr>
CC1C=C(C(OC(=O)NC)=C(C=1)C(C)(C)C)C(C)(C)C

> <InChI_Code_QSARr>
InChI=1S/C17H27NO2/c1-11-9-12(16(2,3)4)14(20-15(19)18-8)13(10-11)17(5,6)7/h9-10H,1-8H3,(H,18,19)

> <InChI Key_QSARr>
PNRAZZZISDRWMV-UHFFFAOYSA-N

> <Salt_Solvent>


> <Salt_Solvent_ID>
0

> <MPID>
100993

> <Tr_1_Tst_0>
1

> <Ready_Biodeg>
0.0

$$$$
Row965
  Mrv171c012251911052D          

 11 11  0  0  0  0            999 V2000
    1.4939    2.8875    0.0000 O   0  0  0  0  0  0  0  0  0  0  0  0
    0.7794    2.4750    0.0000 S   0  0  0  0  0  0  0  0  0  0  0  0
    0.3669    3.1895    0.0000 Cl  0  0  0  0  0  0  0  0  0  0  0  0
    0.0649    2.0625    0.0000 C   0  0  0  0  0  0  0  0  0  0  0  0
    0.0649    1.2375    0.0000 C   0  0  0  0  0  0  0  0  0  0  0  0
   -0.6495    0.8250    0.0000 C   0  0  0  0  0  0  0  0  0  0  0  0
   -0.6495   -0.0000    0.0000 C   0  0  0  0  0  0  0  0  0  0  0  0
    0.0649   -0.4125    0.0000 C   0  0  0  0  0  0  0  0  0  0  0  0
    0.7794    0.0000    0.0000 C   0  0  0  0  0  0  0  0  0  0  0  0
    0.7794    0.8250    0.0000 C   0  0  0  0  0  0  0  0  0  0  0  0
    1.1919    1.7605    0.0000 O   0  0  0  0  0  0  0  0  0  0  0  0
  1  2  2  0  0  0  0
  2  3  1  0  0  0  0
  2  4  1  0  0  0  0
  4  5  1  0  0  0  0
  6  5  1  0  0  0  0
  7  6  2  0  0  0  0
  8  7  1  0  0  0  0
  9  8  2  0  0  0  0
 10  9  1  0  0  0  0
  5 10  2  0  0  0  0
  2 11  2  0  0  0  0
M  END
> <ChemID>
101002

> <CAS>
1939-99-7

> <Original_SMILES>
O=S(=O)(Cl)Cc1ccccc1

> <preferred_name>
Benzenemethanesulfonyl chloride

> <dsstox_substance_id>
DTXSID3062071

> <dsstox_compound_id>
DTXCID9036066

> <qc_level>
Public_High

> <Canonical_QSARr>
O=S(=O)(Cl)CC1C=CC=CC=1

> <InChI_Code_QSARr>
InChI=1S/C7H7ClO2S/c8-11(9,10)6-7-4-2-1-3-5-7/h1-5H,6H2

> <InChI Key_QSARr>
OAHKWDDSKCRNFE-UHFFFAOYSA-N

> <Salt_Solvent>


> <Salt_Solvent_ID>
0

> <MPID>
100994

> <Tr_1_Tst_0>
1

> <Ready_Biodeg>
1.0

$$$$
Row966
  Mrv171c012251911052D          

 10 10  0  0  0  0            999 V2000
    1.4289   -0.0000    0.0000 C   0  0  0  0  0  0  0  0  0  0  0  0
    2.1434   -0.4125    0.0000 O   0  0  0  0  0  0  0  0  0  0  0  0
    1.4289    0.8250    0.0000 C   0  0  0  0  0  0  0  0  0  0  0  0
    0.7145    1.2375    0.0000 C   0  0  0  0  0  0  0  0  0  0  0  0
    0.7145    2.0625    0.0000 Cl  0  0  0  0  0  0  0  0  0  0  0  0
   -0.0000    0.8250    0.0000 C   0  0  0  0  0  0  0  0  0  0  0  0
   -0.7145    1.2375    0.0000 Br  0  0  0  0  0  0  0  0  0  0  0  0
   -0.0000    0.0000    0.0000 C   0  0  0  0  0  0  0  0  0  0  0  0
    0.7145   -0.4125    0.0000 C   0  0  0  0  0  0  0  0  0  0  0  0
    0.7145   -1.2375    0.0000 Cl  0  0  0  0  0  0  0  0  0  0  0  0
  1  2  1  0  0  0  0
  3  1  1  0  0  0  0
  4  3  2  0  0  0  0
  4  5  1  0  0  0  0
  6  4  1  0  0  0  0
  6  7  1  0  0  0  0
  8  6  2  0  0  0  0
  9  8  1  0  0  0  0
  1  9  2  0  0  0  0
  9 10  1  0  0  0  0
M  END
> <ChemID>
101003

> <CAS>
1940-42-7

> <Original_SMILES>
Oc1cc(Cl)c(Br)cc1Cl

> <preferred_name>
4-Bromo-2,5-dichlorophenol

> <dsstox_substance_id>
DTXSID3062073

> <dsstox_compound_id>
DTXCID3036074

> <qc_level>
Public_High

> <Canonical_QSARr>
OC1C=C(Cl)C(Br)=CC=1Cl

> <InChI_Code_QSARr>
InChI=1S/C6H3BrCl2O/c7-3-1-5(9)6(10)2-4(3)8/h1-2,10H

> <InChI Key_QSARr>
HWWKEEKUMAZJLL-UHFFFAOYSA-N

> <Salt_Solvent>


> <Salt_Solvent_ID>
0

> <MPID>
100995

> <Tr_1_Tst_0>
1

> <Ready_Biodeg>
0.0

$$$$
Row967
  Mrv171c012251911052D          

 20 21  0  0  0  0            999 V2000
    4.8542   -3.1343    0.0000 C   0  0  0  0  0  0  0  0  0  0  0  0
    4.1397   -2.7218    0.0000 N   0  0  0  0  0  0  0  0  0  0  0  0
    4.1397   -1.8968    0.0000 C   0  0  0  0  0  0  0  0  0  0  0  0
    4.8542   -1.4843    0.0000 C   0  0  0  0  0  0  0  0  0  0  0  0
    4.8542   -0.6593    0.0000 C   0  0  0  0  0  0  0  0  0  0  0  0
    4.1397   -0.2468    0.0000 C   0  0  0  0  0  0  0  0  0  0  0  0
    4.1397    0.5782    0.0000 O   0  0  0  0  0  0  0  0  0  0  0  0
    3.4252    0.9907    0.0000 C   0  0  0  0  0  0  0  0  0  0  0  0
    3.4252    1.8157    0.0000 C   0  0  0  0  0  0  0  0  0  0  0  0
    2.7108    2.2282    0.0000 C   0  0  0  0  0  0  0  0  0  0  0  0
    1.9963    1.8157    0.0000 C   0  0  0  0  0  0  0  0  0  0  0  0
    1.2818    2.2282    0.0000 Cl  0  0  0  0  0  0  0  0  0  0  0  0
    1.9963    0.9907    0.0000 C   0  0  0  0  0  0  0  0  0  0  0  0
    2.7108    0.5782    0.0000 C   0  0  0  0  0  0  0  0  0  0  0  0
    3.4252   -0.6593    0.0000 C   0  0  0  0  0  0  0  0  0  0  0  0
    3.4252   -1.4843    0.0000 C   0  0  0  0  0  0  0  0  0  0  0  0
    4.8542   -3.9593    0.0000 N   0  0  0  0  0  0  0  0  0  0  0  0
    5.5686   -4.3718    0.0000 C   0  0  0  0  0  0  0  0  0  0  0  0
    4.1397   -4.3718    0.0000 C   0  0  0  0  0  0  0  0  0  0  0  0
    5.5686   -2.7218    0.0000 O   0  0  0  0  0  0  0  0  0  0  0  0
  1  2  1  0  0  0  0
  2  3  1  0  0  0  0
  4  3  1  0  0  0  0
  5  4  2  0  0  0  0
  6  5  1  0  0  0  0
  6  7  1  0  0  0  0
  7  8  1  0  0  0  0
  9  8  1  0  0  0  0
 10  9  2  0  0  0  0
 11 10  1  0  0  0  0
 11 12  1  0  0  0  0
 13 11  2  0  0  0  0
 14 13  1  0  0  0  0
  8 14  2  0  0  0  0
 15  6  2  0  0  0  0
 16 15  1  0  0  0  0
  3 16  2  0  0  0  0
  1 17  1  0  0  0  0
 17 18  1  0  0  0  0
 17 19  1  0  0  0  0
  1 20  2  0  0  0  0
M  END
> <ChemID>
101004

> <CAS>
1982-47-4

> <Original_SMILES>
CN(C)C(=O)Nc1ccc(cc1)Oc1ccc(Cl)cc1

> <preferred_name>
Chloroxuron

> <dsstox_substance_id>
DTXSID7040287

> <dsstox_compound_id>
DTXCID5020287

> <qc_level>
DSSTox_Low

> <Canonical_QSARr>
CN(C)C(=O)NC1C=CC(=CC=1)OC1C=CC(Cl)=CC=1

> <InChI_Code_QSARr>
InChI=1S/C15H15ClN2O2/c1-18(2)15(19)17-12-5-9-14(10-6-12)20-13-7-3-11(16)4-8-13/h3-10H,1-2H3,(H,17,19)

> <InChI Key_QSARr>
IVUXTESCPZUGJC-UHFFFAOYSA-N

> <Salt_Solvent>


> <Salt_Solvent_ID>
0

> <MPID>
100996

> <Tr_1_Tst_0>
0

> <Ready_Biodeg>
0.0

$$$$
Row968
  Mrv171c012251911052D          

 21 22  0  0  0  0            999 V2000
    4.8149    0.0888    0.0000 S   0  0  0  0  0  0  0  0  0  0  0  0
    4.8149    0.9138    0.0000 C   0  0  0  0  0  0  0  0  0  0  0  0
    5.5293    1.3263    0.0000 C   0  0  0  0  0  0  0  0  0  0  0  0
    5.5293    2.1513    0.0000 C   0  0  0  0  0  0  0  0  0  0  0  0
    4.8149    2.5638    0.0000 C   0  0  0  0  0  0  0  0  0  0  0  0
    4.8149    3.3888    0.0000 N   0  0  0  0  0  0  0  0  0  0  0  0
    4.1004    2.1513    0.0000 C   0  0  0  0  0  0  0  0  0  0  0  0
    4.1004    1.3263    0.0000 C   0  0  0  0  0  0  0  0  0  0  0  0
    4.8149   -0.7362    0.0000 N   0  0  0  0  0  0  0  0  0  0  0  0
    5.5293   -1.1487    0.0000 C   0  0  0  0  0  0  0  0  0  0  0  0
    5.5293   -1.9737    0.0000 N   0  0  0  0  0  0  0  0  0  0  0  0
    6.2438   -2.3862    0.0000 C   0  0  0  0  0  0  0  0  0  0  0  0
    6.2438   -3.2112    0.0000 C   0  0  0  0  0  0  0  0  0  0  0  0
    6.9583   -3.6237    0.0000 C   0  0  0  0  0  0  0  0  0  0  0  0
    6.9583   -1.9737    0.0000 N   0  0  0  0  0  0  0  0  0  0  0  0
    6.9583   -1.1487    0.0000 C   0  0  0  0  0  0  0  0  0  0  0  0
    7.6728   -0.7362    0.0000 C   0  0  0  0  0  0  0  0  0  0  0  0
    7.6728    0.0888    0.0000 C   0  0  0  0  0  0  0  0  0  0  0  0
    6.2438   -0.7362    0.0000 N   0  0  0  0  0  0  0  0  0  0  0  0
    3.9899    0.0888    0.0000 O   0  0  0  0  0  0  0  0  0  0  0  0
    5.6399    0.0888    0.0000 O   0  0  0  0  0  0  0  0  0  0  0  0
  1  2  1  0  0  0  0
  3  2  1  0  0  0  0
  4  3  2  0  0  0  0
  5  4  1  0  0  0  0
  5  6  1  0  0  0  0
  7  5  2  0  0  0  0
  8  7  1  0  0  0  0
  2  8  2  0  0  0  0
  1  9  1  0  0  0  0
  9 10  1  0  0  0  0
 11 10  1  0  0  0  0
 12 11  2  0  0  0  0
 12 13  1  0  0  0  0
 13 14  1  0  0  0  0
 15 12  1  0  0  0  0
 16 15  2  0  0  0  0
 16 17  1  0  0  0  0
 17 18  1  0  0  0  0
 19 16  1  0  0  0  0
 10 19  2  0  0  0  0
  1 20  2  0  0  0  0
  1 21  2  0  0  0  0
M  END
> <ChemID>
101005

> <CAS>
1984-94-7

> <Original_SMILES>
CCc1[n]c(NS(=O)(=O)c2ccc(N)cc2)[n]c(CC)[n]1

> <preferred_name>
Sulfasymazine

> <dsstox_substance_id>
DTXSID80173584

> <dsstox_compound_id>
DTXCID4096075

> <qc_level>
Public_Medium

> <Canonical_QSARr>
CCC1N=C(NS(=O)(=O)C2C=CC(N)=CC=2)N=C(CC)N=1

> <InChI_Code_QSARr>
InChI=1S/C13H17N5O2S/c1-3-11-15-12(4-2)17-13(16-11)18-21(19,20)10-7-5-9(14)6-8-10/h5-8H,3-4,14H2,1-2H3,(H,15,16,17,18)

> <InChI Key_QSARr>
ZQMQGBHQZZQTJE-UHFFFAOYSA-N

> <Salt_Solvent>


> <Salt_Solvent_ID>
0

> <MPID>
100997

> <Tr_1_Tst_0>
1

> <Ready_Biodeg>
0.0

$$$$
Row969
  Mrv171c012251911052D          

 15 16  0  0  0  0            999 V2000
    2.1714   -4.7543    0.0000 C   0  0  0  0  0  0  0  0  0  0  0  0
    2.8859   -4.3418    0.0000 C   0  0  0  0  0  0  0  0  0  0  0  0
    2.8859   -3.5168    0.0000 C   0  0  0  0  0  0  0  0  0  0  0  0
    2.1714   -3.1043    0.0000 C   0  0  0  0  0  0  0  0  0  0  0  0
    2.1714   -2.2793    0.0000 C   0  0  0  0  0  0  0  0  0  0  0  0
    1.4569   -1.8668    0.0000 C   0  0  0  0  0  0  0  0  0  0  0  0
    1.4569   -1.0418    0.0000 C   0  0  0  0  0  0  0  0  0  0  0  0
    0.7425   -0.6293    0.0000 C   0  0  0  0  0  0  0  0  0  0  0  0
    0.0280   -1.0418    0.0000 C   0  0  0  0  0  0  0  0  0  0  0  0
    0.0280   -1.8668    0.0000 C   0  0  0  0  0  0  0  0  0  0  0  0
    0.7425   -2.2793    0.0000 C   0  0  0  0  0  0  0  0  0  0  0  0
    2.8859   -1.8668    0.0000 C   0  0  0  0  0  0  0  0  0  0  0  0
    1.4569   -3.5168    0.0000 C   0  0  0  0  0  0  0  0  0  0  0  0
    1.4569   -4.3418    0.0000 C   0  0  0  0  0  0  0  0  0  0  0  0
    2.1714   -5.5793    0.0000 O   0  0  0  0  0  0  0  0  0  0  0  0
  2  1  1  0  0  0  0
  3  2  2  0  0  0  0
  4  3  1  0  0  0  0
  4  5  1  0  0  0  0
  5  6  1  0  0  0  0
  7  6  1  0  0  0  0
  8  7  2  0  0  0  0
  9  8  1  0  0  0  0
 10  9  2  0  0  0  0
 11 10  1  0  0  0  0
  6 11  2  0  0  0  0
  5 12  1  0  0  0  0
 13  4  2  0  0  0  0
 14 13  1  0  0  0  0
  1 14  2  0  0  0  0
  1 15  1  0  0  0  0
M  END
> <ChemID>
101006

> <CAS>
1988-89-2

> <Original_SMILES>
CC(c1ccccc1)c1ccc(O)cc1

> <preferred_name>


> <dsstox_substance_id>
DTXSID20862809

> <dsstox_compound_id>
DTXCID50811527

> <qc_level>


> <Canonical_QSARr>
CC(C1C=CC=CC=1)C1C=CC(O)=CC=1

> <InChI_Code_QSARr>
InChI=1S/C14H14O/c1-11(12-5-3-2-4-6-12)13-7-9-14(15)10-8-13/h2-11,15H,1H3

> <InChI Key_QSARr>
XHASMJXNUHCHBL-UHFFFAOYSA-N

> <Salt_Solvent>


> <Salt_Solvent_ID>
0

> <MPID>
100998

> <Tr_1_Tst_0>
1

> <Ready_Biodeg>
0.0

$$$$
Row970
  Mrv171c012251911052D          

 11 11  0  0  0  0            999 V2000
    2.1007   -1.6911    0.0000 C   0  0  0  0  0  0  0  0  0  0  0  0
    1.3862   -1.2786    0.0000 C   0  0  0  0  0  0  0  0  0  0  0  0
    1.3862   -0.4536    0.0000 C   0  0  0  0  0  0  0  0  0  0  0  0
    0.6717   -0.0411    0.0000 N   0  0  0  0  0  0  0  0  0  0  0  0
    2.1007   -0.0411    0.0000 O   0  0  0  0  0  0  0  0  0  0  0  0
    0.6717   -1.6911    0.0000 C   0  0  0  0  0  0  0  0  0  0  0  0
   -0.0428   -1.2786    0.0000 Cl  0  0  0  0  0  0  0  0  0  0  0  0
    0.6717   -2.5161    0.0000 C   0  0  0  0  0  0  0  0  0  0  0  0
    1.3862   -2.9286    0.0000 C   0  0  0  0  0  0  0  0  0  0  0  0
    2.1007   -2.5161    0.0000 C   0  0  0  0  0  0  0  0  0  0  0  0
    2.8151   -1.2786    0.0000 Cl  0  0  0  0  0  0  0  0  0  0  0  0
  2  1  1  0  0  0  0
  2  3  1  0  0  0  0
  3  4  1  0  0  0  0
  3  5  2  0  0  0  0
  6  2  2  0  0  0  0
  6  7  1  0  0  0  0
  8  6  1  0  0  0  0
  9  8  2  0  0  0  0
 10  9  1  0  0  0  0
  1 10  2  0  0  0  0
  1 11  1  0  0  0  0
M  END
> <ChemID>
101007

> <CAS>
2008-58-4

> <Original_SMILES>
NC(=O)c1c(Cl)cccc1Cl

> <preferred_name>
2,6-Dichlorobenzamide

> <dsstox_substance_id>
DTXSID7022170

> <dsstox_compound_id>
DTXCID502170

> <qc_level>
DSSTox_Low

> <Canonical_QSARr>
NC(=O)C1C(Cl)=CC=CC=1Cl

> <InChI_Code_QSARr>
InChI=1S/C7H5Cl2NO/c8-4-2-1-3-5(9)6(4)7(10)11/h1-3H,(H2,10,11)

> <InChI Key_QSARr>
JHSPCUHPSIUQRB-UHFFFAOYSA-N

> <Salt_Solvent>


> <Salt_Solvent_ID>
0

> <MPID>
100999

> <Tr_1_Tst_0>
1

> <Ready_Biodeg>
0.0

$$$$
Row971
  Mrv171c012251911052D          

 11 10  0  0  0  0            999 V2000
   -0.0043   -0.0383    0.0000 C   0  0  0  0  0  0  0  0  0  0  0  0
    0.7102   -0.4508    0.0000 C   0  0  0  0  0  0  0  0  0  0  0  0
    1.4246   -0.0383    0.0000 C   0  0  0  0  0  0  0  0  0  0  0  0
    2.1391   -0.4508    0.0000 C   0  0  0  0  0  0  0  0  0  0  0  0
    2.8536   -0.0383    0.0000 C   0  0  0  0  0  0  0  0  0  0  0  0
    3.5680   -0.4508    0.0000 C   0  0  0  0  0  0  0  0  0  0  0  0
    4.2825   -0.0383    0.0000 C   0  0  0  0  0  0  0  0  0  0  0  0
    4.9970   -0.4508    0.0000 C   0  0  0  0  0  0  0  0  0  0  0  0
    5.7115   -0.0383    0.0000 C   0  0  0  0  0  0  0  0  0  0  0  0
    6.4259   -0.4508    0.0000 C   0  0  0  0  0  0  0  0  0  0  0  0
    7.1404   -0.0383    0.0000 N   0  0  0  0  0  0  0  0  0  0  0  0
  1  2  1  0  0  0  0
  2  3  1  0  0  0  0
  3  4  1  0  0  0  0
  4  5  1  0  0  0  0
  5  6  1  0  0  0  0
  6  7  1  0  0  0  0
  7  8  1  0  0  0  0
  8  9  1  0  0  0  0
  9 10  1  0  0  0  0
 10 11  1  0  0  0  0
M  END
> <ChemID>
101008

> <CAS>
2016-57-1

> <Original_SMILES>
CCCCCCCCCCN

> <preferred_name>
1-Decanamine

> <dsstox_substance_id>
DTXSID2022171

> <dsstox_compound_id>
DTXCID902171

> <qc_level>
DSSTox_Low

> <Canonical_QSARr>
CCCCCCCCCCN

> <InChI_Code_QSARr>
InChI=1S/C10H23N/c1-2-3-4-5-6-7-8-9-10-11/h2-11H2,1H3

> <InChI Key_QSARr>
MHZGKXUYDGKKIU-UHFFFAOYSA-N

> <Salt_Solvent>


> <Salt_Solvent_ID>
0

> <MPID>
101000

> <Tr_1_Tst_0>
0

> <Ready_Biodeg>
1.0

$$$$
Row972
  Mrv171c012251911052D          

 15 15  0  0  0  0            999 V2000
    1.4778   -4.6200    0.0000 C   0  0  0  0  0  0  0  0  0  0  0  0
    2.1923   -4.2075    0.0000 N   0  0  0  0  0  0  0  0  0  0  0  0
    2.1923   -3.3825    0.0000 C   0  0  0  0  0  0  0  0  0  0  0  0
    2.9068   -2.9700    0.0000 O   0  0  0  0  0  0  0  0  0  0  0  0
    2.9068   -2.1450    0.0000 C   0  0  0  0  0  0  0  0  0  0  0  0
    3.6213   -1.7325    0.0000 C   0  0  0  0  0  0  0  0  0  0  0  0
    3.6213   -0.9075    0.0000 C   0  0  0  0  0  0  0  0  0  0  0  0
    2.9068   -0.4950    0.0000 C   0  0  0  0  0  0  0  0  0  0  0  0
    2.9068    0.3300    0.0000 N   0  0  0  0  0  0  0  0  0  0  0  0
    2.1923    0.7425    0.0000 C   0  0  0  0  0  0  0  0  0  0  0  0
    3.6213    0.7425    0.0000 C   0  0  0  0  0  0  0  0  0  0  0  0
    2.1923   -0.9075    0.0000 C   0  0  0  0  0  0  0  0  0  0  0  0
    1.4778   -0.4950    0.0000 C   0  0  0  0  0  0  0  0  0  0  0  0
    2.1923   -1.7325    0.0000 C   0  0  0  0  0  0  0  0  0  0  0  0
    1.4778   -2.9700    0.0000 O   0  0  0  0  0  0  0  0  0  0  0  0
  1  2  1  0  0  0  0
  2  3  1  0  0  0  0
  3  4  1  0  0  0  0
  4  5  1  0  0  0  0
  6  5  1  0  0  0  0
  7  6  2  0  0  0  0
  8  7  1  0  0  0  0
  8  9  1  0  0  0  0
  9 10  1  0  0  0  0
  9 11  1  0  0  0  0
 12  8  2  0  0  0  0
 12 13  1  0  0  0  0
 14 12  1  0  0  0  0
  5 14  2  0  0  0  0
  3 15  2  0  0  0  0
M  END
> <ChemID>
101009

> <CAS>
2032-59-9

> <Original_SMILES>
Cc1cc(ccc1N(C)C)OC(=O)NC

> <preferred_name>
Aminocarb

> <dsstox_substance_id>
DTXSID7022172

> <dsstox_compound_id>
DTXCID302172

> <qc_level>
DSSTox_Low

> <Canonical_QSARr>
CC1C=C(C=CC=1N(C)C)OC(=O)NC

> <InChI_Code_QSARr>
InChI=1S/C11H16N2O2/c1-8-7-9(15-11(14)12-2)5-6-10(8)13(3)4/h5-7H,1-4H3,(H,12,14)

> <InChI Key_QSARr>
IMIDOCRTMDIQIJ-UHFFFAOYSA-N

> <Salt_Solvent>


> <Salt_Solvent_ID>
0

> <MPID>
101001

> <Tr_1_Tst_0>
1

> <Ready_Biodeg>
1.0

$$$$
Row973
  Mrv171c012251911052D          

  9  9  0  0  0  0            999 V2000
    0.4763    0.2750    0.0000 C   0  0  0  0  0  0  0  0  0  0  0  0
   -0.2382   -0.1375    0.0000 C   0  0  0  0  0  0  0  0  0  0  0  0
   -0.9526    0.2750    0.0000 C   0  0  0  0  0  0  0  0  0  0  0  0
    1.1908   -0.1375    0.0000 C   0  0  0  0  0  0  0  0  0  0  0  0
    1.9053    0.2750    0.0000 C   0  0  0  0  0  0  0  0  0  0  0  0
    1.9053    1.1000    0.0000 C   0  0  0  0  0  0  0  0  0  0  0  0
    1.1908    1.5125    0.0000 C   0  0  0  0  0  0  0  0  0  0  0  0
    1.1908    2.3375    0.0000 Cl  0  0  0  0  0  0  0  0  0  0  0  0
    0.4763    1.1000    0.0000 C   0  0  0  0  0  0  0  0  0  0  0  0
  1  2  1  0  0  0  0
  2  3  2  0  0  0  0
  4  1  1  0  0  0  0
  5  4  2  0  0  0  0
  6  5  1  0  0  0  0
  7  6  2  0  0  0  0
  7  8  1  0  0  0  0
  9  7  1  0  0  0  0
  1  9  2  0  0  0  0
M  END
> <ChemID>
101010

> <CAS>
2039-85-2

> <Original_SMILES>
C=Cc1cccc(Cl)c1

> <preferred_name>
m-Chlorostyrene

> <dsstox_substance_id>
DTXSID8073130

> <dsstox_compound_id>
DTXCID4036279

> <qc_level>
Public_High

> <Canonical_QSARr>
C=CC1C=CC=C(Cl)C=1

> <InChI_Code_QSARr>
InChI=1S/C8H7Cl/c1-2-7-4-3-5-8(9)6-7/h2-6H,1H2

> <InChI Key_QSARr>
BOVQCIDBZXNFEJ-UHFFFAOYSA-N

> <Salt_Solvent>


> <Salt_Solvent_ID>
0

> <MPID>
101002

> <Tr_1_Tst_0>
1

> <Ready_Biodeg>
0.0

$$$$
Row974
  Mrv171c012251911052D          

  9  9  0  0  0  0            999 V2000
    2.4403   -0.9821    0.0000 C   0  0  0  0  0  0  0  0  0  0  0  0
    1.7259   -1.3946    0.0000 C   0  0  0  0  0  0  0  0  0  0  0  0
    1.0114   -0.9821    0.0000 C   0  0  0  0  0  0  0  0  0  0  0  0
    1.0114   -0.1571    0.0000 Cl  0  0  0  0  0  0  0  0  0  0  0  0
    0.2969   -1.3946    0.0000 C   0  0  0  0  0  0  0  0  0  0  0  0
    0.2969   -2.2196    0.0000 C   0  0  0  0  0  0  0  0  0  0  0  0
    1.0114   -2.6321    0.0000 C   0  0  0  0  0  0  0  0  0  0  0  0
    1.7259   -2.2196    0.0000 C   0  0  0  0  0  0  0  0  0  0  0  0
    2.4403   -0.1571    0.0000 C   0  0  0  0  0  0  0  0  0  0  0  0
  1  2  1  0  0  0  0
  3  2  1  0  0  0  0
  3  4  1  0  0  0  0
  5  3  2  0  0  0  0
  6  5  1  0  0  0  0
  7  6  2  0  0  0  0
  8  7  1  0  0  0  0
  2  8  2  0  0  0  0
  1  9  2  0  0  0  0
M  END
> <ChemID>
101011

> <CAS>
2039-87-4

> <Original_SMILES>
C=Cc1ccccc1Cl

> <preferred_name>
2-Chlorostyrene

> <dsstox_substance_id>
DTXSID3024811

> <dsstox_compound_id>
DTXCID704811

> <qc_level>
DSSTox_High

> <Canonical_QSARr>
C=CC1=CC=CC=C1Cl

> <InChI_Code_QSARr>
InChI=1S/C8H7Cl/c1-2-7-5-3-4-6-8(7)9/h2-6H,1H2

> <InChI Key_QSARr>
ISRGONDNXBCDBM-UHFFFAOYSA-N

> <Salt_Solvent>


> <Salt_Solvent_ID>
0

> <MPID>
101003

> <Tr_1_Tst_0>
1

> <Ready_Biodeg>
0.0

$$$$
Row975
  Mrv171c012251911052D          

 11 11  0  0  0  0            999 V2000
    1.8381   -2.7688    0.0000 C   0  0  0  0  0  0  0  0  0  0  0  0
    1.8381   -3.5938    0.0000 O   0  0  0  0  0  0  0  0  0  0  0  0
    2.5525   -2.3563    0.0000 C   0  0  0  0  0  0  0  0  0  0  0  0
    2.5525   -1.5313    0.0000 C   0  0  0  0  0  0  0  0  0  0  0  0
    1.8381   -1.1188    0.0000 C   0  0  0  0  0  0  0  0  0  0  0  0
    1.8381   -0.2938    0.0000 C   0  0  0  0  0  0  0  0  0  0  0  0
    1.1236   -1.5313    0.0000 C   0  0  0  0  0  0  0  0  0  0  0  0
    0.4091   -1.1188    0.0000 N   0  3  0  0  0  0  0  0  0  0  0  0
   -0.3054   -1.5313    0.0000 O   0  0  0  0  0  0  0  0  0  0  0  0
    0.4091   -0.2938    0.0000 O   0  5  0  0  0  0  0  0  0  0  0  0
    1.1236   -2.3563    0.0000 C   0  0  0  0  0  0  0  0  0  0  0  0
  1  2  1  0  0  0  0
  3  1  1  0  0  0  0
  4  3  2  0  0  0  0
  5  4  1  0  0  0  0
  5  6  1  0  0  0  0
  7  5  2  0  0  0  0
  7  8  1  0  0  0  0
  8  9  2  0  0  0  0
  8 10  1  0  0  0  0
 11  7  1  0  0  0  0
  1 11  2  0  0  0  0
M  CHG  2   8   1  10  -1
M  END
> <ChemID>
101012

> <CAS>
2042-14-0

> <Original_SMILES>
Cc1ccc(O)cc1[N+]([O-])=O

> <preferred_name>


> <dsstox_substance_id>
DTXSID90879085

> <dsstox_compound_id>
DTXCID801017103

> <qc_level>


> <Canonical_QSARr>
CC1C=CC(O)=CC=1[N+]([O-])=O

> <InChI_Code_QSARr>
InChI=1S/C7H7NO3/c1-5-2-3-6(9)4-7(5)8(10)11/h2-4,9H,1H3

> <InChI Key_QSARr>
BQEXDUKMTVYBRK-UHFFFAOYSA-N

> <Salt_Solvent>


> <Salt_Solvent_ID>
0

> <MPID>
101004

> <Tr_1_Tst_0>
0

> <Ready_Biodeg>
0.0

$$$$
Row976
  Mrv171c012251911052D          

 13 14  0  0  0  0            999 V2000
    0.1649   -0.5394    0.0000 C   0  0  0  0  0  0  0  0  0  0  0  0
   -0.5496   -0.1269    0.0000 C   0  0  0  0  0  0  0  0  0  0  0  0
   -1.2641   -0.5394    0.0000 C   0  0  0  0  0  0  0  0  0  0  0  0
   -1.2641   -1.3644    0.0000 C   0  0  0  0  0  0  0  0  0  0  0  0
   -0.5496   -1.7769    0.0000 C   0  0  0  0  0  0  0  0  0  0  0  0
    0.1649   -1.3644    0.0000 C   0  0  0  0  0  0  0  0  0  0  0  0
    0.8793   -1.7769    0.0000 C   0  0  0  0  0  0  0  0  0  0  0  0
    0.8793   -2.6019    0.0000 Cl  0  0  0  0  0  0  0  0  0  0  0  0
    1.5938   -1.3644    0.0000 C   0  0  0  0  0  0  0  0  0  0  0  0
    1.5938   -0.5394    0.0000 C   0  0  0  0  0  0  0  0  0  0  0  0
    2.3083   -0.1269    0.0000 Cl  0  0  0  0  0  0  0  0  0  0  0  0
    0.8793   -0.1269    0.0000 C   0  0  0  0  0  0  0  0  0  0  0  0
    0.8793    0.6981    0.0000 O   0  0  0  0  0  0  0  0  0  0  0  0
  2  1  1  0  0  0  0
  3  2  2  0  0  0  0
  4  3  1  0  0  0  0
  5  4  2  0  0  0  0
  6  5  1  0  0  0  0
  6  1  1  0  0  0  0
  7  6  2  0  0  0  0
  7  8  1  0  0  0  0
  9  7  1  0  0  0  0
 10  9  2  0  0  0  0
 10 11  1  0  0  0  0
 12 10  1  0  0  0  0
  1 12  2  0  0  0  0
 12 13  1  0  0  0  0
M  END
> <ChemID>
101013

> <CAS>
2050-76-2

> <Original_SMILES>
Oc1c2ccccc2c(Cl)cc1Cl

> <preferred_name>
1-Naphthalenol, 2,4-dichloro-

> <dsstox_substance_id>
DTXSID4062141

> <dsstox_compound_id>
DTXCID7036321

> <qc_level>
Public_High

> <Canonical_QSARr>
OC1=C2C=CC=CC2=C(Cl)C=C1Cl

> <InChI_Code_QSARr>
InChI=1S/C10H6Cl2O/c11-8-5-9(12)10(13)7-4-2-1-3-6(7)8/h1-5,13H

> <InChI Key_QSARr>
HVLJEMXDXOTWLV-UHFFFAOYSA-N

> <Salt_Solvent>


> <Salt_Solvent_ID>
0

> <MPID>
101005

> <Tr_1_Tst_0>
1

> <Ready_Biodeg>
0.0

$$$$
Row977
  Mrv171c012251911052D          

 11 10  0  0  0  0            999 V2000
    3.5682   -0.4508    0.0000 N   0  0  0  0  0  0  0  0  0  0  0  0
    2.8538   -0.0383    0.0000 C   0  0  0  0  0  0  0  0  0  0  0  0
    2.1393   -0.4508    0.0000 C   0  0  0  0  0  0  0  0  0  0  0  0
    1.4248   -0.0383    0.0000 C   0  0  0  0  0  0  0  0  0  0  0  0
    0.7104   -0.4508    0.0000 C   0  0  0  0  0  0  0  0  0  0  0  0
   -0.0041   -0.0383    0.0000 C   0  0  0  0  0  0  0  0  0  0  0  0
    4.2827   -0.0383    0.0000 C   0  0  0  0  0  0  0  0  0  0  0  0
    4.9972   -0.4508    0.0000 C   0  0  0  0  0  0  0  0  0  0  0  0
    5.7117   -0.0383    0.0000 C   0  0  0  0  0  0  0  0  0  0  0  0
    6.4261   -0.4508    0.0000 C   0  0  0  0  0  0  0  0  0  0  0  0
    7.1406   -0.0383    0.0000 C   0  0  0  0  0  0  0  0  0  0  0  0
  1  2  1  0  0  0  0
  2  3  1  0  0  0  0
  3  4  1  0  0  0  0
  4  5  1  0  0  0  0
  5  6  1  0  0  0  0
  1  7  1  0  0  0  0
  7  8  1  0  0  0  0
  8  9  1  0  0  0  0
  9 10  1  0  0  0  0
 10 11  1  0  0  0  0
M  END
> <ChemID>
101014

> <CAS>
2050-92-2

> <Original_SMILES>
CCCCCNCCCCC

> <preferred_name>
N-pentylpentan-1-amine

> <dsstox_substance_id>
DTXSID4024931

> <dsstox_compound_id>
DTXCID504931

> <qc_level>
DSSTox_Low

> <Canonical_QSARr>
CCCCCNCCCCC

> <InChI_Code_QSARr>
InChI=1S/C10H23N/c1-3-5-7-9-11-10-8-6-4-2/h11H,3-10H2,1-2H3

> <InChI Key_QSARr>
JACMPVXHEARCBO-UHFFFAOYSA-N

> <Salt_Solvent>


> <Salt_Solvent_ID>
0

> <MPID>
101006

> <Tr_1_Tst_0>
1

> <Ready_Biodeg>
1.0

$$$$
Row978
  Mrv171c012251911052D          

 13 14  0  0  0  0            999 V2000
    2.6609   -0.5244    0.0000 C   0  0  0  0  0  0  0  0  0  0  0  0
    3.3754   -0.1119    0.0000 C   0  0  0  0  0  0  0  0  0  0  0  0
    3.3754    0.7131    0.0000 C   0  0  0  0  0  0  0  0  0  0  0  0
    2.6609    1.1256    0.0000 C   0  0  0  0  0  0  0  0  0  0  0  0
    2.6609    1.9506    0.0000 Cl  0  0  0  0  0  0  0  0  0  0  0  0
    1.9464    0.7131    0.0000 C   0  0  0  0  0  0  0  0  0  0  0  0
    1.9464   -0.1119    0.0000 C   0  0  0  0  0  0  0  0  0  0  0  0
    2.6609   -1.3494    0.0000 C   0  0  0  0  0  0  0  0  0  0  0  0
    1.9464   -1.7619    0.0000 C   0  0  0  0  0  0  0  0  0  0  0  0
    1.9464   -2.5869    0.0000 C   0  0  0  0  0  0  0  0  0  0  0  0
    2.6609   -2.9994    0.0000 C   0  0  0  0  0  0  0  0  0  0  0  0
    3.3754   -2.5869    0.0000 C   0  0  0  0  0  0  0  0  0  0  0  0
    3.3754   -1.7619    0.0000 C   0  0  0  0  0  0  0  0  0  0  0  0
  2  1  1  0  0  0  0
  3  2  2  0  0  0  0
  4  3  1  0  0  0  0
  4  5  1  0  0  0  0
  6  4  2  0  0  0  0
  7  6  1  0  0  0  0
  1  7  2  0  0  0  0
  1  8  1  0  0  0  0
  9  8  1  0  0  0  0
 10  9  2  0  0  0  0
 11 10  1  0  0  0  0
 12 11  2  0  0  0  0
 13 12  1  0  0  0  0
  8 13  2  0  0  0  0
M  END
> <ChemID>
101015

> <CAS>
2051-62-9

> <Original_SMILES>
Clc1ccc(cc1)-c1ccccc1

> <preferred_name>
4-Chlorobiphenyl

> <dsstox_substance_id>
DTXSID3040300

> <dsstox_compound_id>
DTXCID1020300

> <qc_level>
DSSTox_High

> <Canonical_QSARr>
ClC1C=CC(=CC=1)C1C=CC=CC=1

> <InChI_Code_QSARr>
InChI=1S/C12H9Cl/c13-12-8-6-11(7-9-12)10-4-2-1-3-5-10/h1-9H

> <InChI Key_QSARr>
FPWNLURCHDRMHC-UHFFFAOYSA-N

> <Salt_Solvent>


> <Salt_Solvent_ID>
0

> <MPID>
101007

> <Tr_1_Tst_0>
1

> <Ready_Biodeg>
1.0

$$$$
Row979
  Mrv171c012251911052D          

 21 22  0  0  0  0            999 V2000
    2.4555   -2.8039    0.0000 C   0  0  0  0  0  0  0  0  0  0  0  0
    3.2805   -2.8039    0.0000 C   0  0  0  0  0  0  0  0  0  0  0  0
    3.6930   -3.5183    0.0000 O   0  0  0  0  0  0  0  0  0  0  0  0
    4.5180   -3.5183    0.0000 P   0  0  0  0  0  0  0  0  0  0  0  0
    4.5180   -4.3433    0.0000 C   0  0  0  0  0  0  0  0  0  0  0  0
    3.8035   -4.7558    0.0000 C   0  0  0  0  0  0  0  0  0  0  0  0
    3.8035   -5.5808    0.0000 C   0  0  0  0  0  0  0  0  0  0  0  0
    4.5180   -5.9933    0.0000 C   0  0  0  0  0  0  0  0  0  0  0  0
    5.2325   -5.5808    0.0000 C   0  0  0  0  0  0  0  0  0  0  0  0
    5.2325   -4.7558    0.0000 C   0  0  0  0  0  0  0  0  0  0  0  0
    5.3430   -3.5183    0.0000 O   0  0  0  0  0  0  0  0  0  0  0  0
    5.7555   -2.8039    0.0000 C   0  0  0  0  0  0  0  0  0  0  0  0
    6.5805   -2.8039    0.0000 C   0  0  0  0  0  0  0  0  0  0  0  0
    6.9930   -2.0894    0.0000 C   0  0  0  0  0  0  0  0  0  0  0  0
    6.5805   -1.3749    0.0000 C   0  0  0  0  0  0  0  0  0  0  0  0
    6.9930   -0.6604    0.0000 N   0  3  0  0  0  0  0  0  0  0  0  0
    6.5805    0.0540    0.0000 O   0  5  0  0  0  0  0  0  0  0  0  0
    7.8180   -0.6604    0.0000 O   0  0  0  0  0  0  0  0  0  0  0  0
    5.7555   -1.3749    0.0000 C   0  0  0  0  0  0  0  0  0  0  0  0
    5.3430   -2.0894    0.0000 C   0  0  0  0  0  0  0  0  0  0  0  0
    4.5180   -2.6933    0.0000 S   0  0  0  0  0  0  0  0  0  0  0  0
  1  2  1  0  0  0  0
  2  3  1  0  0  0  0
  3  4  1  0  0  0  0
  4  5  1  0  0  0  0
  6  5  1  0  0  0  0
  7  6  2  0  0  0  0
  8  7  1  0  0  0  0
  9  8  2  0  0  0  0
 10  9  1  0  0  0  0
  5 10  2  0  0  0  0
  4 11  1  0  0  0  0
 11 12  1  0  0  0  0
 13 12  1  0  0  0  0
 14 13  2  0  0  0  0
 15 14  1  0  0  0  0
 15 16  1  0  0  0  0
 16 17  1  0  0  0  0
 16 18  2  0  0  0  0
 19 15  2  0  0  0  0
 20 19  1  0  0  0  0
 12 20  2  0  0  0  0
  4 21  2  0  0  0  0
M  CHG  2  16   1  17  -1
M  END
> <ChemID>
101018

> <CAS>
2104-64-5

> <Original_SMILES>
CCOP(=S)(Oc1ccc(cc1)[N+]([O-])=O)c1ccccc1

> <preferred_name>
EPN

> <dsstox_substance_id>
DTXSID7022174

> <dsstox_compound_id>
DTXCID102174

> <qc_level>
DSSTox_Low

> <Canonical_QSARr>
CCOP(=S)(OC1C=CC(=CC=1)[N+]([O-])=O)C1C=CC=CC=1

> <InChI_Code_QSARr>
InChI=1S/C14H14NO4PS/c1-2-18-20(21,14-6-4-3-5-7-14)19-13-10-8-12(9-11-13)15(16)17/h3-11H,2H2,1H3

> <InChI Key_QSARr>
AIGRXSNSLVJMEA-UHFFFAOYSA-N

> <Salt_Solvent>


> <Salt_Solvent_ID>
0

> <MPID>
101008

> <Tr_1_Tst_0>
0

> <Ready_Biodeg>
0.0

$$$$
Row980
  Mrv171c012251911052D          

  9  9  0  0  0  0            999 V2000
    1.7473   -2.4749    0.0000 O   0  0  0  0  0  0  0  0  0  0  0  0
    1.7473   -1.6499    0.0000 C   0  0  0  0  0  0  0  0  0  0  0  0
    2.4618   -1.2374    0.0000 C   0  0  0  0  0  0  0  0  0  0  0  0
    2.4618   -0.4124    0.0000 C   0  0  0  0  0  0  0  0  0  0  0  0
    1.7473    0.0001    0.0000 C   0  0  0  0  0  0  0  0  0  0  0  0
    1.7473    0.8251    0.0000 Cl  0  0  0  0  0  0  0  0  0  0  0  0
    1.0328   -0.4124    0.0000 C   0  0  0  0  0  0  0  0  0  0  0  0
    1.0328   -1.2374    0.0000 C   0  0  0  0  0  0  0  0  0  0  0  0
    0.3184   -1.6499    0.0000 O   0  0  0  0  0  0  0  0  0  0  0  0
  1  2  1  0  0  0  0
  3  2  1  0  0  0  0
  4  3  2  0  0  0  0
  5  4  1  0  0  0  0
  5  6  1  0  0  0  0
  7  5  2  0  0  0  0
  8  7  1  0  0  0  0
  2  8  2  0  0  0  0
  8  9  1  0  0  0  0
M  END
> <ChemID>
101019

> <CAS>
2138-22-9

> <Original_SMILES>
Oc1cc(Cl)ccc1O

> <preferred_name>
4-Chlorocatechol

> <dsstox_substance_id>
DTXSID7022176

> <dsstox_compound_id>
DTXCID902176

> <qc_level>
DSSTox_Low

> <Canonical_QSARr>
OC1C=C(Cl)C=CC=1O

> <InChI_Code_QSARr>
InChI=1S/C6H5ClO2/c7-4-1-2-5(8)6(9)3-4/h1-3,8-9H

> <InChI Key_QSARr>
WWOBYPKUYODHDG-UHFFFAOYSA-N

> <Salt_Solvent>


> <Salt_Solvent_ID>
0

> <MPID>
101009

> <Tr_1_Tst_0>
1

> <Ready_Biodeg>
0.0

$$$$
Row981
  Mrv171c012251911052D          

 10 10  0  0  0  0            999 V2000
    0.6430    1.0313    0.0000 C   0  0  0  0  0  0  0  0  0  0  0  0
    0.6430    0.2062    0.0000 C   0  0  0  0  0  0  0  0  0  0  0  0
    1.3575   -0.2063    0.0000 C   0  0  0  0  0  0  0  0  0  0  0  0
    2.0720    0.2062    0.0000 C   0  0  0  0  0  0  0  0  0  0  0  0
    2.0720    1.0312    0.0000 C   0  0  0  0  0  0  0  0  0  0  0  0
    1.3575    1.4437    0.0000 C   0  0  0  0  0  0  0  0  0  0  0  0
    1.3575    2.2687    0.0000 Cl  0  0  0  0  0  0  0  0  0  0  0  0
   -0.0715    1.4438    0.0000 C   0  0  0  0  0  0  0  0  0  0  0  0
   -0.7859    1.0313    0.0000 C   0  0  0  0  0  0  0  0  0  0  0  0
   -0.0715    2.2688    0.0000 O   0  0  0  0  0  0  0  0  0  0  0  0
  2  1  1  0  0  0  0
  3  2  2  0  0  0  0
  4  3  1  0  0  0  0
  5  4  2  0  0  0  0
  6  5  1  0  0  0  0
  1  6  2  0  0  0  0
  6  7  1  0  0  0  0
  1  8  1  0  0  0  0
  8  9  1  0  0  0  0
  8 10  2  0  0  0  0
M  END
> <ChemID>
101020

> <CAS>
2142-68-9

> <Original_SMILES>
CC(=O)c1ccccc1Cl

> <preferred_name>
Ethanone, 1-(2-chlorophenyl)-

> <dsstox_substance_id>
DTXSID1062201

> <dsstox_compound_id>
DTXCID0036475

> <qc_level>
Public_High

> <Canonical_QSARr>
CC(=O)C1C=CC=CC=1Cl

> <InChI_Code_QSARr>
InChI=1S/C8H7ClO/c1-6(10)7-4-2-3-5-8(7)9/h2-5H,1H3

> <InChI Key_QSARr>
ZDOYHCIRUPHUHN-UHFFFAOYSA-N

> <Salt_Solvent>


> <Salt_Solvent_ID>
0

> <MPID>
101010

> <Tr_1_Tst_0>
1

> <Ready_Biodeg>
0.0

$$$$
Row982
  Mrv171c012251911052D          

 15 16  0  0  0  0            999 V2000
    3.6147   -1.2353    0.0000 C   0  0  0  0  0  0  0  0  0  0  0  0
    2.9003   -0.8228    0.0000 C   0  0  0  0  0  0  0  0  0  0  0  0
    2.1858   -1.2353    0.0000 C   0  0  0  0  0  0  0  0  0  0  0  0
    1.4713   -0.8228    0.0000 O   0  0  0  0  0  0  0  0  0  0  0  0
    0.7569   -1.2353    0.0000 C   0  0  0  0  0  0  0  0  0  0  0  0
    0.0424   -0.8228    0.0000 C   0  0  0  0  0  0  0  0  0  0  0  0
   -0.6721   -1.2353    0.0000 C   0  0  0  0  0  0  0  0  0  0  0  0
    0.0424    0.0022    0.0000 C   0  0  0  0  0  0  0  0  0  0  0  0
    2.1858   -2.0603    0.0000 C   0  0  0  0  0  0  0  0  0  0  0  0
    2.9003   -2.4728    0.0000 C   0  0  0  0  0  0  0  0  0  0  0  0
    3.6147   -2.0603    0.0000 C   0  0  0  0  0  0  0  0  0  0  0  0
    4.3292   -2.4728    0.0000 C   0  0  0  0  0  0  0  0  0  0  0  0
    5.0437   -2.0603    0.0000 C   0  0  0  0  0  0  0  0  0  0  0  0
    5.0437   -1.2353    0.0000 C   0  0  0  0  0  0  0  0  0  0  0  0
    4.3292   -0.8228    0.0000 C   0  0  0  0  0  0  0  0  0  0  0  0
  2  1  1  0  0  0  0
  3  2  2  0  0  0  0
  3  4  1  0  0  0  0
  4  5  1  0  0  0  0
  5  6  1  0  0  0  0
  6  7  1  0  0  0  0
  6  8  1  0  0  0  0
  9  3  1  0  0  0  0
 10  9  2  0  0  0  0
 11 10  1  0  0  0  0
 11  1  1  0  0  0  0
 12 11  2  0  0  0  0
 13 12  1  0  0  0  0
 14 13  2  0  0  0  0
 15 14  1  0  0  0  0
  1 15  2  0  0  0  0
M  END
> <ChemID>
101022

> <CAS>
2173-57-1

> <Original_SMILES>
CC(C)COc1cc2ccccc2cc1

> <preferred_name>
Isobutyl 2-naphthyl ether

> <dsstox_substance_id>
DTXSID1051484

> <dsstox_compound_id>
DTXCID3030422

> <qc_level>
DSSTox_Low

> <Canonical_QSARr>
CC(C)COC1=CC2=CC=CC=C2C=C1

> <InChI_Code_QSARr>
InChI=1S/C14H16O/c1-11(2)10-15-14-8-7-12-5-3-4-6-13(12)9-14/h3-9,11H,10H2,1-2H3

> <InChI Key_QSARr>
XOHIHZHSDMWWMS-UHFFFAOYSA-N

> <Salt_Solvent>


> <Salt_Solvent_ID>
0

> <MPID>
101011

> <Tr_1_Tst_0>
1

> <Ready_Biodeg>
0.0

$$$$
Row983
  Mrv171c012251911052D          

 12 13  0  0  0  0            999 V2000
    0.4763   -1.0312    0.0000 C   0  0  0  0  0  0  0  0  0  0  0  0
   -0.2382   -0.6187    0.0000 C   0  0  0  0  0  0  0  0  0  0  0  0
   -0.9526   -1.0312    0.0000 C   0  0  0  0  0  0  0  0  0  0  0  0
   -0.9526   -1.8562    0.0000 C   0  0  0  0  0  0  0  0  0  0  0  0
   -0.2382   -2.2687    0.0000 C   0  0  0  0  0  0  0  0  0  0  0  0
    0.4763   -1.8562    0.0000 C   0  0  0  0  0  0  0  0  0  0  0  0
    1.1908   -2.2687    0.0000 C   0  0  0  0  0  0  0  0  0  0  0  0
    1.9052   -1.8562    0.0000 C   0  0  0  0  0  0  0  0  0  0  0  0
    1.9052   -1.0312    0.0000 C   0  0  0  0  0  0  0  0  0  0  0  0
    1.1908   -0.6187    0.0000 C   0  0  0  0  0  0  0  0  0  0  0  0
    1.1908    0.2063    0.0000 O   0  0  0  0  0  0  0  0  0  0  0  0
    0.4763    0.6188    0.0000 C   0  0  0  0  0  0  0  0  0  0  0  0
  2  1  1  0  0  0  0
  3  2  2  0  0  0  0
  4  3  1  0  0  0  0
  5  4  2  0  0  0  0
  6  5  1  0  0  0  0
  6  1  1  0  0  0  0
  7  6  2  0  0  0  0
  8  7  1  0  0  0  0
  9  8  2  0  0  0  0
 10  9  1  0  0  0  0
  1 10  2  0  0  0  0
 10 11  1  0  0  0  0
 11 12  1  0  0  0  0
M  END
> <ChemID>
101024

> <CAS>
2216-69-5

> <Original_SMILES>
COc1cccc2ccccc21

> <preferred_name>
Naphthalene, 1-methoxy-

> <dsstox_substance_id>
DTXSID5062263

> <dsstox_compound_id>
DTXCID6036625

> <qc_level>
Public_High

> <Canonical_QSARr>
COC1C=CC=C2C=CC=CC2=1

> <InChI_Code_QSARr>
InChI=1S/C11H10O/c1-12-11-8-4-6-9-5-2-3-7-10(9)11/h2-8H,1H3

> <InChI Key_QSARr>
NQMUGNMMFTYOHK-UHFFFAOYSA-N

> <Salt_Solvent>


> <Salt_Solvent_ID>
0

> <MPID>
101013

> <Tr_1_Tst_0>
0

> <Ready_Biodeg>
0.0

$$$$
Row984
  Mrv171c012251911052D          

 10  9  0  0  0  0            999 V2000
    0.0045   -0.1647    0.0000 C   0  0  0  0  0  0  0  0  0  0  0  0
    0.7189   -0.5772    0.0000 C   0  0  0  0  0  0  0  0  0  0  0  0
    1.4334   -0.1647    0.0000 C   0  0  0  0  0  0  0  0  0  0  0  0
    2.1479   -0.5772    0.0000 C   0  0  0  0  0  0  0  0  0  0  0  0
    2.8624   -0.1647    0.0000 C   0  0  0  0  0  0  0  0  0  0  0  0
    3.5768   -0.5772    0.0000 C   0  0  0  0  0  0  0  0  0  0  0  0
    4.2913   -0.1647    0.0000 C   0  0  0  0  0  0  0  0  0  0  0  0
    5.0058   -0.5772    0.0000 C   0  0  0  0  0  0  0  0  0  0  0  0
    5.7202   -0.1647    0.0000 C   0  0  0  0  0  0  0  0  0  0  0  0
    6.4347    0.2478    0.0000 N   0  0  0  0  0  0  0  0  0  0  0  0
  1  2  1  0  0  0  0
  2  3  1  0  0  0  0
  3  4  1  0  0  0  0
  4  5  1  0  0  0  0
  5  6  1  0  0  0  0
  6  7  1  0  0  0  0
  7  8  1  0  0  0  0
  8  9  1  0  0  0  0
  9 10  3  0  0  0  0
M  END
> <ChemID>
101025

> <CAS>
2243-27-8

> <Original_SMILES>
CCCCCCCCC#N

> <preferred_name>
Octyl cyanide

> <dsstox_substance_id>
DTXSID6022183

> <dsstox_compound_id>
DTXCID002183

> <qc_level>
DSSTox_High

> <Canonical_QSARr>
CCCCCCCCC#N

> <InChI_Code_QSARr>
InChI=1S/C9H17N/c1-2-3-4-5-6-7-8-9-10/h2-8H2,1H3

> <InChI Key_QSARr>
PLZZPPHAMDJOSR-UHFFFAOYSA-N

> <Salt_Solvent>


> <Salt_Solvent_ID>
0

> <MPID>
101014

> <Tr_1_Tst_0>
1

> <Ready_Biodeg>
1.0

$$$$
Row985
  Mrv171c012251911052D          

 12 13  0  0  0  0            999 V2000
    1.0713   -3.0929    0.0000 N   0  0  0  0  0  0  0  0  0  0  0  0
    1.0713   -2.2679    0.0000 C   0  0  0  0  0  0  0  0  0  0  0  0
    0.3568   -1.8554    0.0000 C   0  0  0  0  0  0  0  0  0  0  0  0
    0.3568   -1.0304    0.0000 C   0  0  0  0  0  0  0  0  0  0  0  0
    1.0713   -0.6179    0.0000 C   0  0  0  0  0  0  0  0  0  0  0  0
    1.7858   -1.0304    0.0000 C   0  0  0  0  0  0  0  0  0  0  0  0
    2.5003   -0.6179    0.0000 C   0  0  0  0  0  0  0  0  0  0  0  0
    2.5003    0.2071    0.0000 N   0  0  0  0  0  0  0  0  0  0  0  0
    3.2147   -1.0304    0.0000 C   0  0  0  0  0  0  0  0  0  0  0  0
    3.2147   -1.8554    0.0000 C   0  0  0  0  0  0  0  0  0  0  0  0
    2.5003   -2.2679    0.0000 C   0  0  0  0  0  0  0  0  0  0  0  0
    1.7858   -1.8554    0.0000 C   0  0  0  0  0  0  0  0  0  0  0  0
  1  2  1  0  0  0  0
  3  2  1  0  0  0  0
  4  3  2  0  0  0  0
  5  4  1  0  0  0  0
  6  5  2  0  0  0  0
  6  7  1  0  0  0  0
  7  8  1  0  0  0  0
  7  9  2  0  0  0  0
  9 10  1  0  0  0  0
 10 11  2  0  0  0  0
 11 12  1  0  0  0  0
  2 12  2  0  0  0  0
 12  6  1  0  0  0  0
M  END
> <ChemID>
101026

> <CAS>
2243-62-1

> <Original_SMILES>
Nc1cccc2c1cccc2N

> <preferred_name>
1,5-Naphthalenediamine

> <dsstox_substance_id>
DTXSID3020916

> <dsstox_compound_id>
DTXCID90916

> <qc_level>
DSSTox_Low

> <Canonical_QSARr>
NC1C=CC=C2C=1C=CC=C2N

> <InChI_Code_QSARr>
InChI=1S/C10H10N2/c11-9-5-1-3-7-8(9)4-2-6-10(7)12/h1-6H,11-12H2

> <InChI Key_QSARr>
KQSABULTKYLFEV-UHFFFAOYSA-N

> <Salt_Solvent>


> <Salt_Solvent_ID>
0

> <MPID>
101015

> <Tr_1_Tst_0>
1

> <Ready_Biodeg>
0.0

$$$$
Row986
  Mrv171c012251911052D          

 12 12  0  0  0  0            999 V2000
    1.2682   -2.0282    0.0000 C   0  0  0  0  0  0  0  0  0  0  0  0
    0.5537   -1.6157    0.0000 C   0  0  0  0  0  0  0  0  0  0  0  0
    0.5537   -0.7907    0.0000 O   0  0  0  0  0  0  0  0  0  0  0  0
   -0.1608   -2.0282    0.0000 O   0  0  0  0  0  0  0  0  0  0  0  0
    1.2682   -2.8532    0.0000 C   0  0  0  0  0  0  0  0  0  0  0  0
    1.9827   -3.2657    0.0000 C   0  0  0  0  0  0  0  0  0  0  0  0
    2.6971   -2.8532    0.0000 C   0  0  0  0  0  0  0  0  0  0  0  0
    2.6971   -2.0282    0.0000 C   0  0  0  0  0  0  0  0  0  0  0  0
    1.9827   -1.6157    0.0000 C   0  0  0  0  0  0  0  0  0  0  0  0
    1.9827   -0.7907    0.0000 C   0  0  0  0  0  0  0  0  0  0  0  0
    1.2682   -0.3782    0.0000 O   0  0  0  0  0  0  0  0  0  0  0  0
    2.6971   -0.3782    0.0000 O   0  0  0  0  0  0  0  0  0  0  0  0
  1  2  1  0  0  0  0
  2  3  1  0  0  0  0
  2  4  2  0  0  0  0
  5  1  1  0  0  0  0
  6  5  1  0  0  0  0
  7  6  2  0  0  0  0
  8  7  1  0  0  0  0
  9  8  1  0  0  0  0
  1  9  1  0  0  0  0
  9 10  1  0  0  0  0
 10 11  1  0  0  0  0
 10 12  2  0  0  0  0
M  END
> <ChemID>
101027

> <CAS>
88-98-2

> <Original_SMILES>
OC(=O)[C@H]1CC=CC[C@H]1C(O)=O

> <preferred_name>


> <dsstox_substance_id>
DTXSID80861676

> <dsstox_compound_id>
DTXCID80810563

> <qc_level>


> <Canonical_QSARr>
OC(=O)C1CC=CCC1C(O)=O

> <InChI_Code_QSARr>
InChI=1S/C8H10O4/c9-7(10)5-3-1-2-4-6(5)8(11)12/h1-2,5-6H,3-4H2,(H,9,10)(H,11,12)

> <InChI Key_QSARr>
ILUAAIDVFMVTAU-UHFFFAOYSA-N

> <Salt_Solvent>


> <Salt_Solvent_ID>
0

> <MPID>
101016

> <Tr_1_Tst_0>
1

> <Ready_Biodeg>
0.0

$$$$
Row987
  Mrv171c012251911052D          

  9  8  0  0  0  0            999 V2000
    0.6248   -1.7956    0.0000 O   0  0  0  0  0  0  0  0  0  0  0  0
   -0.0897   -2.2081    0.0000 C   0  0  0  0  0  0  0  0  0  0  0  0
   -0.8041   -1.7956    0.0000 C   0  0  0  0  0  0  0  0  0  0  0  0
   -1.5186   -2.2081    0.0000 C   0  0  0  0  0  0  0  0  0  0  0  0
   -2.2331   -1.7956    0.0000 O   0  0  0  0  0  0  0  0  0  0  0  0
    1.3393   -2.2081    0.0000 C   0  0  0  0  0  0  0  0  0  0  0  0
    2.0537   -1.7956    0.0000 C   0  0  0  0  0  0  0  0  0  0  0  0
    2.7682   -2.2081    0.0000 C   0  0  0  0  0  0  0  0  0  0  0  0
    3.4827   -1.7956    0.0000 O   0  0  0  0  0  0  0  0  0  0  0  0
  1  2  1  0  0  0  0
  2  3  1  0  0  0  0
  3  4  1  0  0  0  0
  4  5  1  0  0  0  0
  1  6  1  0  0  0  0
  6  7  1  0  0  0  0
  7  8  1  0  0  0  0
  8  9  1  0  0  0  0
M  END
> <ChemID>
101028

> <CAS>
2396-61-4

> <Original_SMILES>
OCCCOCCCO

> <preferred_name>


> <dsstox_substance_id>
DTXSID10862919

> <dsstox_compound_id>
DTXCID00811618

> <qc_level>


> <Canonical_QSARr>
OCCCOCCCO

> <InChI_Code_QSARr>
InChI=1S/C6H14O3/c7-3-1-5-9-6-2-4-8/h7-8H,1-6H2

> <InChI Key_QSARr>
SZXQTJUDPRGNJN-UHFFFAOYSA-N

> <Salt_Solvent>


> <Salt_Solvent_ID>
0

> <MPID>
101017

> <Tr_1_Tst_0>
0

> <Ready_Biodeg>
0.0

$$$$
Row988
  Mrv171c012251911052D          

 14 14  0  0  0  0            999 V2000
   -0.0000   -1.0607    0.0000 C   0  0  0  0  0  0  0  0  0  0  0  0
   -0.7145   -0.6482    0.0000 C   0  0  0  0  0  0  0  0  0  0  0  0
   -1.4289   -1.0607    0.0000 C   0  0  0  0  0  0  0  0  0  0  0  0
   -1.4289   -1.8857    0.0000 C   0  0  0  0  0  0  0  0  0  0  0  0
   -2.1434   -2.2982    0.0000 C   0  0  0  0  0  0  0  0  0  0  0  0
   -0.7145   -2.2982    0.0000 C   0  0  0  0  0  0  0  0  0  0  0  0
   -0.0000   -1.8857    0.0000 C   0  0  0  0  0  0  0  0  0  0  0  0
    0.7145   -0.6482    0.0000 N   0  0  0  0  0  0  0  0  0  0  0  0
    1.4289   -1.0607    0.0000 C   0  0  0  0  0  0  0  0  0  0  0  0
    1.4289   -1.8857    0.0000 O   0  0  0  0  0  0  0  0  0  0  0  0
    2.1434   -0.6482    0.0000 C   0  0  0  0  0  0  0  0  0  0  0  0
    2.8579   -1.0607    0.0000 C   0  0  0  0  0  0  0  0  0  0  0  0
    3.5723   -0.6482    0.0000 O   0  0  0  0  0  0  0  0  0  0  0  0
    2.8579   -1.8857    0.0000 C   0  0  0  0  0  0  0  0  0  0  0  0
  2  1  1  0  0  0  0
  3  2  2  0  0  0  0
  4  3  1  0  0  0  0
  4  5  1  0  0  0  0
  6  4  2  0  0  0  0
  7  6  1  0  0  0  0
  1  7  2  0  0  0  0
  1  8  1  0  0  0  0
  8  9  1  0  0  0  0
  9 10  2  0  0  0  0
  9 11  1  0  0  0  0
 11 12  1  0  0  0  0
 12 13  2  0  0  0  0
 12 14  1  0  0  0  0
M  END
> <ChemID>
101029

> <CAS>
2415-85-2

> <Original_SMILES>
CC(=O)CC(=O)Nc1ccc(C)cc1

> <preferred_name>
Butanamide, N-(4-methylphenyl)-3-oxo-

> <dsstox_substance_id>
DTXSID5062394

> <dsstox_compound_id>
DTXCID6037013

> <qc_level>
Public_High

> <Canonical_QSARr>
CC(=O)CC(=O)NC1C=CC(C)=CC=1

> <InChI_Code_QSARr>
InChI=1S/C11H13NO2/c1-8-3-5-10(6-4-8)12-11(14)7-9(2)13/h3-6H,7H2,1-2H3,(H,12,14)

> <InChI Key_QSARr>
MJGLMEMIYDUEHA-UHFFFAOYSA-N

> <Salt_Solvent>


> <Salt_Solvent_ID>
0

> <MPID>
101018

> <Tr_1_Tst_0>
1

> <Ready_Biodeg>
1.0

$$$$
Row989
  Mrv171c012251911052D          

  9  9  0  0  0  0            999 V2000
    1.6010   -1.0427    0.0000 C   0  0  0  0  0  0  0  0  0  0  0  0
    0.8866   -0.6302    0.0000 C   0  0  0  0  0  0  0  0  0  0  0  0
    0.4741    0.0842    0.0000 O   0  0  0  0  0  0  0  0  0  0  0  0
    0.0616   -0.6302    0.0000 C   0  0  0  0  0  0  0  0  0  0  0  0
    2.3155   -0.6302    0.0000 O   0  0  0  0  0  0  0  0  0  0  0  0
    3.0300   -1.0427    0.0000 C   0  0  0  0  0  0  0  0  0  0  0  0
    3.7444   -0.6302    0.0000 C   0  0  0  0  0  0  0  0  0  0  0  0
    4.4589   -1.0427    0.0000 C   0  0  0  0  0  0  0  0  0  0  0  0
    5.1734   -0.6302    0.0000 C   0  0  0  0  0  0  0  0  0  0  0  0
  1  2  1  0  0  0  0
  3  2  1  0  0  0  0
  4  3  1  0  0  0  0
  2  4  1  0  0  0  0
  1  5  1  0  0  0  0
  5  6  1  0  0  0  0
  6  7  1  0  0  0  0
  7  8  1  0  0  0  0
  8  9  1  0  0  0  0
M  END
> <ChemID>
101030

> <CAS>
2426-08-6

> <Original_SMILES>
CCCCOCC1CO1

> <preferred_name>
Butyl glycidyl ether

> <dsstox_substance_id>
DTXSID9024691

> <dsstox_compound_id>
DTXCID704691

> <qc_level>
DSSTox_Low

> <Canonical_QSARr>
CCCCOCC1CO1

> <InChI_Code_QSARr>
InChI=1S/C7H14O2/c1-2-3-4-8-5-7-6-9-7/h7H,2-6H2,1H3

> <InChI Key_QSARr>
YSUQLAYJZDEMOT-UHFFFAOYSA-N

> <Salt_Solvent>


> <Salt_Solvent_ID>
0

> <MPID>
101019

> <Tr_1_Tst_0>
1

> <Ready_Biodeg>
1.0

$$$$
Row990
  Mrv171c012251911052D          

 30 29  0  0  0  0            999 V2000
   13.0006   -1.2647    0.0000 C   0  0  0  0  0  0  0  0  0  0  0  0
   12.2861   -0.8522    0.0000 C   0  0  0  0  0  0  0  0  0  0  0  0
   11.5717   -1.2647    0.0000 C   0  0  0  0  0  0  0  0  0  0  0  0
   10.8572   -0.8522    0.0000 C   0  0  0  0  0  0  0  0  0  0  0  0
   10.1427   -1.2647    0.0000 C   0  0  0  0  0  0  0  0  0  0  0  0
    9.4282   -0.8522    0.0000 C   0  0  0  0  0  0  0  0  0  0  0  0
    8.7138   -1.2647    0.0000 C   0  0  0  0  0  0  0  0  0  0  0  0
    7.9993   -0.8522    0.0000 C   0  0  0  0  0  0  0  0  0  0  0  0
    7.2848   -1.2647    0.0000 C   0  0  0  0  0  0  0  0  0  0  0  0
    6.5704   -0.8522    0.0000 C   0  0  0  0  0  0  0  0  0  0  0  0
    5.8559   -1.2647    0.0000 O   0  0  0  0  0  0  0  0  0  0  0  0
    5.1414   -0.8522    0.0000 C   0  0  0  0  0  0  0  0  0  0  0  0
    4.4269   -1.2647    0.0000 C   0  0  0  0  0  0  0  0  0  0  0  0
    3.7125   -0.8522    0.0000 C   0  0  0  0  0  0  0  0  0  0  0  0
    2.9980   -1.2647    0.0000 C   0  0  0  0  0  0  0  0  0  0  0  0
    2.2835   -0.8522    0.0000 C   0  0  0  0  0  0  0  0  0  0  0  0
    1.5691   -1.2647    0.0000 C   0  0  0  0  0  0  0  0  0  0  0  0
    0.8546   -0.8522    0.0000 C   0  0  0  0  0  0  0  0  0  0  0  0
    0.1401   -1.2647    0.0000 C   0  0  0  0  0  0  0  0  0  0  0  0
    6.5704   -0.0272    0.0000 O   0  0  0  0  0  0  0  0  0  0  0  0
   13.7151   -0.8522    0.0000 O   0  0  0  0  0  0  0  0  0  0  0  0
   14.4295   -1.2647    0.0000 C   0  0  0  0  0  0  0  0  0  0  0  0
   15.1440   -0.8522    0.0000 C   0  0  0  0  0  0  0  0  0  0  0  0
   15.8585   -1.2647    0.0000 C   0  0  0  0  0  0  0  0  0  0  0  0
   16.5729   -0.8522    0.0000 C   0  0  0  0  0  0  0  0  0  0  0  0
   17.2874   -1.2647    0.0000 C   0  0  0  0  0  0  0  0  0  0  0  0
   18.0019   -0.8522    0.0000 C   0  0  0  0  0  0  0  0  0  0  0  0
   18.7164   -1.2647    0.0000 C   0  0  0  0  0  0  0  0  0  0  0  0
   19.4308   -0.8522    0.0000 C   0  0  0  0  0  0  0  0  0  0  0  0
   13.0006   -2.0897    0.0000 O   0  0  0  0  0  0  0  0  0  0  0  0
  1  2  1  0  0  0  0
  2  3  1  0  0  0  0
  3  4  1  0  0  0  0
  4  5  1  0  0  0  0
  5  6  1  0  0  0  0
  6  7  1  0  0  0  0
  7  8  1  0  0  0  0
  8  9  1  0  0  0  0
  9 10  1  0  0  0  0
 10 11  1  0  0  0  0
 11 12  1  0  0  0  0
 12 13  1  0  0  0  0
 13 14  1  0  0  0  0
 14 15  1  0  0  0  0
 15 16  1  0  0  0  0
 16 17  1  0  0  0  0
 17 18  1  0  0  0  0
 18 19  1  0  0  0  0
 10 20  2  0  0  0  0
  1 21  1  0  0  0  0
 21 22  1  0  0  0  0
 22 23  1  0  0  0  0
 23 24  1  0  0  0  0
 24 25  1  0  0  0  0
 25 26  1  0  0  0  0
 26 27  1  0  0  0  0
 27 28  1  0  0  0  0
 28 29  1  0  0  0  0
  1 30  2  0  0  0  0
M  END
> <ChemID>
101031

> <CAS>
2432-87-3

> <Original_SMILES>
CCCCCCCCOC(=O)CCCCCCCCC(=O)OCCCCCCCC

> <preferred_name>
Dioctyl succinate

> <dsstox_substance_id>
DTXSID0047537

> <dsstox_compound_id>
DTXCID8027537

> <qc_level>
DSSTox_Low

> <Canonical_QSARr>
CCCCCCCCOC(=O)CCCCCCCCC(=O)OCCCCCCCC

> <InChI_Code_QSARr>
InChI=1S/C26H50O4/c1-3-5-7-9-15-19-23-29-25(27)21-17-13-11-12-14-18-22-26(28)30-24-20-16-10-8-6-4-2/h3-24H2,1-2H3

> <InChI Key_QSARr>
MIMDHDXOBDPUQW-UHFFFAOYSA-N

> <Salt_Solvent>


> <Salt_Solvent_ID>
0

> <MPID>
101020

> <Tr_1_Tst_0>
1

> <Ready_Biodeg>
1.0

$$$$
Row991
  Mrv171c012251911052D          

 10  9  0  0  0  0            999 V2000
    0.0031   -0.8241    0.0000 C   0  0  0  0  0  0  0  0  0  0  0  0
    0.7176   -1.2366    0.0000 C   0  0  0  0  0  0  0  0  0  0  0  0
    1.4321   -0.8241    0.0000 C   0  0  0  0  0  0  0  0  0  0  0  0
    1.4321    0.0009    0.0000 C   0  0  0  0  0  0  0  0  0  0  0  0
    2.1465   -1.2366    0.0000 C   0  0  0  0  0  0  0  0  0  0  0  0
    2.8610   -0.8241    0.0000 C   0  0  0  0  0  0  0  0  0  0  0  0
    3.5755   -1.2366    0.0000 C   0  0  0  0  0  0  0  0  0  0  0  0
    4.2899   -0.8241    0.0000 C   0  0  0  0  0  0  0  0  0  0  0  0
    4.2899    0.0009    0.0000 C   0  0  0  0  0  0  0  0  0  0  0  0
    5.0044   -1.2366    0.0000 C   0  0  0  0  0  0  0  0  0  0  0  0
  1  2  2  0  0  0  0
  2  3  1  0  0  0  0
  3  4  1  0  0  0  0
  3  5  1  0  0  0  0
  5  6  1  0  0  0  0
  6  7  1  0  0  0  0
  7  8  2  0  0  0  0
  8  9  1  0  0  0  0
  8 10  1  0  0  0  0
M  END
> <ChemID>
101032

> <CAS>
2436-90-0

> <Original_SMILES>
CC(CCC=C(C)C)C=C

> <preferred_name>
3,7-Dimethylocta-1,6-diene

> <dsstox_substance_id>
DTXSID8029234

> <dsstox_compound_id>
DTXCID809234

> <qc_level>
DSSTox_Low

> <Canonical_QSARr>
CC(CCC=C(C)C)C=C

> <InChI_Code_QSARr>
InChI=1S/C10H18/c1-5-10(4)8-6-7-9(2)3/h5,7,10H,1,6,8H2,2-4H3

> <InChI Key_QSARr>
FUDNBFMOXDUIIE-UHFFFAOYSA-N

> <Salt_Solvent>


> <Salt_Solvent_ID>
0

> <MPID>
101021

> <Tr_1_Tst_0>
0

> <Ready_Biodeg>
1.0

$$$$
Row992
  Mrv171c012251911052D          

 21 20  0  0  0  0            999 V2000
   17.5665    6.8422    0.0000 O   0  0  0  0  0  0  0  0  0  0  0  0
   16.8521    6.4297    0.0000 C   0  0  0  0  0  0  0  0  0  0  0  0
   16.1376    6.8422    0.0000 C   0  0  0  0  0  0  0  0  0  0  0  0
   15.4231    6.4297    0.0000 C   0  0  0  0  0  0  0  0  0  0  0  0
   14.7087    6.8422    0.0000 C   0  0  0  0  0  0  0  0  0  0  0  0
   13.9942    6.4297    0.0000 C   0  0  0  0  0  0  0  0  0  0  0  0
   13.2797    6.8422    0.0000 C   0  0  0  0  0  0  0  0  0  0  0  0
   12.5652    6.4297    0.0000 C   0  0  0  0  0  0  0  0  0  0  0  0
   11.8508    6.8422    0.0000 C   0  0  0  0  0  0  0  0  0  0  0  0
   11.1363    6.4297    0.0000 C   0  0  0  0  0  0  0  0  0  0  0  0
   10.4218    6.8422    0.0000 C   0  0  0  0  0  0  0  0  0  0  0  0
   18.2810    6.4297    0.0000 C   0  0  0  0  0  0  0  0  0  0  0  0
   18.9955    6.8422    0.0000 C   0  0  0  0  0  0  0  0  0  0  0  0
   19.7100    6.4297    0.0000 C   0  0  0  0  0  0  0  0  0  0  0  0
   20.4244    6.8422    0.0000 C   0  0  0  0  0  0  0  0  0  0  0  0
   21.1389    6.4297    0.0000 C   0  0  0  0  0  0  0  0  0  0  0  0
   21.8534    6.8422    0.0000 C   0  0  0  0  0  0  0  0  0  0  0  0
   22.5678    6.4297    0.0000 C   0  0  0  0  0  0  0  0  0  0  0  0
   23.2823    6.8422    0.0000 C   0  0  0  0  0  0  0  0  0  0  0  0
   23.9968    6.4297    0.0000 C   0  0  0  0  0  0  0  0  0  0  0  0
   24.7113    6.8422    0.0000 C   0  0  0  0  0  0  0  0  0  0  0  0
  1  2  1  0  0  0  0
  2  3  1  0  0  0  0
  3  4  1  0  0  0  0
  4  5  1  0  0  0  0
  5  6  1  0  0  0  0
  6  7  1  0  0  0  0
  7  8  1  0  0  0  0
  8  9  1  0  0  0  0
  9 10  1  0  0  0  0
 10 11  1  0  0  0  0
  1 12  1  0  0  0  0
 12 13  1  0  0  0  0
 13 14  1  0  0  0  0
 14 15  1  0  0  0  0
 15 16  1  0  0  0  0
 16 17  1  0  0  0  0
 17 18  1  0  0  0  0
 18 19  1  0  0  0  0
 19 20  1  0  0  0  0
 20 21  1  0  0  0  0
M  END
> <ChemID>
101033

> <CAS>
2456-28-2

> <Original_SMILES>
CCCCCCCCCCOCCCCCCCCCC

> <preferred_name>
Decane, 1,1'-oxybis-

> <dsstox_substance_id>
DTXSID4062430

> <dsstox_compound_id>
DTXCID3037096

> <qc_level>
Public_High

> <Canonical_QSARr>
CCCCCCCCCCOCCCCCCCCCC

> <InChI_Code_QSARr>
InChI=1S/C20H42O/c1-3-5-7-9-11-13-15-17-19-21-20-18-16-14-12-10-8-6-4-2/h3-20H2,1-2H3

> <InChI Key_QSARr>
LTSWUFKUZPPYEG-UHFFFAOYSA-N

> <Salt_Solvent>


> <Salt_Solvent_ID>
0

> <MPID>
101022

> <Tr_1_Tst_0>
1

> <Ready_Biodeg>
1.0

$$$$
Row993
  Mrv171c012251911052D          

 20 23  0  0  0  0            999 V2000
    3.0701   -3.3785    0.0000 C   0  0  0  0  0  0  0  0  0  0  0  0
    3.8802   -3.5344    0.0000 C   0  0  0  0  0  0  0  0  0  0  0  0
    4.1503   -4.3140    0.0000 O   0  0  0  0  0  0  0  0  0  0  0  0
    4.4203   -2.9108    0.0000 C   0  0  0  0  0  0  0  0  0  0  0  0
    5.2305   -3.0667    0.0000 C   0  0  0  0  0  0  0  0  0  0  0  0
    5.5005   -3.8463    0.0000 C   0  0  0  0  0  0  0  0  0  0  0  0
    6.3106   -4.0022    0.0000 C   0  0  0  0  0  0  0  0  0  0  0  0
    6.8507   -3.3785    0.0000 C   0  0  0  0  0  0  0  0  0  0  0  0
    6.5807   -2.5990    0.0000 C   0  0  0  0  0  0  0  0  0  0  0  0
    5.7705   -2.4431    0.0000 C   0  0  0  0  0  0  0  0  0  0  0  0
    5.5005   -1.6635    0.0000 C   0  0  0  0  0  0  0  0  0  0  0  0
    4.6904   -1.5076    0.0000 C   0  0  0  0  0  0  0  0  0  0  0  0
    4.1503   -2.1312    0.0000 C   0  0  0  0  0  0  0  0  0  0  0  0
    3.3401   -1.9753    0.0000 C   0  0  0  0  0  0  0  0  0  0  0  0
    3.0701   -1.1958    0.0000 O   0  0  0  0  0  0  0  0  0  0  0  0
    2.8001   -2.5990    0.0000 C   0  0  0  0  0  0  0  0  0  0  0  0
    1.9899   -2.4431    0.0000 C   0  0  0  0  0  0  0  0  0  0  0  0
    1.4498   -3.0667    0.0000 C   0  0  0  0  0  0  0  0  0  0  0  0
    1.7199   -3.8463    0.0000 C   0  0  0  0  0  0  0  0  0  0  0  0
    2.5300   -4.0022    0.0000 C   0  0  0  0  0  0  0  0  0  0  0  0
  2  1  1  0  0  0  0
  2  3  2  0  0  0  0
  4  2  1  0  0  0  0
  4  5  1  0  0  0  0
  6  5  1  0  0  0  0
  7  6  2  0  0  0  0
  8  7  1  0  0  0  0
  9  8  2  0  0  0  0
 10  9  1  0  0  0  0
  5 10  2  0  0  0  0
 10 11  1  0  0  0  0
 11 12  2  0  0  0  0
 12 13  1  0  0  0  0
 13  4  2  0  0  0  0
 14 13  1  0  0  0  0
 14 15  2  0  0  0  0
 16 14  1  0  0  0  0
 16  1  1  0  0  0  0
 17 16  2  0  0  0  0
 18 17  1  0  0  0  0
 19 18  2  0  0  0  0
 20 19  1  0  0  0  0
  1 20  2  0  0  0  0
M  END
> <ChemID>
101034

> <CAS>
2498-66-0

> <Original_SMILES>
O=C1c2ccc3ccccc3c2C(=O)c2ccccc12

> <preferred_name>
7,12-Benz(a)anthraquinone

> <dsstox_substance_id>
DTXSID8051916

> <dsstox_compound_id>
DTXCID3030478

> <qc_level>
DSSTox_Low

> <Canonical_QSARr>
O=C1C2C3C=CC=CC=3C=CC=2C(=O)C2=CC=CC=C12

> <InChI_Code_QSARr>
InChI=1S/C18H10O2/c19-17-13-7-3-4-8-14(13)18(20)16-12-6-2-1-5-11(12)9-10-15(16)17/h1-10H

> <InChI Key_QSARr>
LHMRXAIRPKSGDE-UHFFFAOYSA-N

> <Salt_Solvent>


> <Salt_Solvent_ID>
0

> <MPID>
101023

> <Tr_1_Tst_0>
1

> <Ready_Biodeg>
0.0

$$$$
Row994
  Mrv171c012251911052D          

 13 12  0  0  0  0            999 V2000
    6.4192   -0.8241    0.0000 C   0  0  0  0  0  0  0  0  0  0  0  0
    6.4192    0.0009    0.0000 O   0  0  0  0  0  0  0  0  0  0  0  0
    5.7047   -1.2366    0.0000 O   0  0  0  0  0  0  0  0  0  0  0  0
    4.9902   -0.8241    0.0000 C   0  0  0  0  0  0  0  0  0  0  0  0
    4.2757   -1.2366    0.0000 C   0  0  0  0  0  0  0  0  0  0  0  0
    3.5613   -0.8241    0.0000 C   0  0  0  0  0  0  0  0  0  0  0  0
    2.8468   -1.2366    0.0000 C   0  0  0  0  0  0  0  0  0  0  0  0
    2.1323   -0.8241    0.0000 C   0  0  0  0  0  0  0  0  0  0  0  0
    1.4179   -1.2366    0.0000 C   0  0  0  0  0  0  0  0  0  0  0  0
    0.7034   -0.8241    0.0000 C   0  0  0  0  0  0  0  0  0  0  0  0
   -0.0111   -1.2366    0.0000 C   0  0  0  0  0  0  0  0  0  0  0  0
    7.1336   -1.2366    0.0000 C   0  0  0  0  0  0  0  0  0  0  0  0
    7.8481   -0.8241    0.0000 C   0  0  0  0  0  0  0  0  0  0  0  0
  1  2  2  0  0  0  0
  1  3  1  0  0  0  0
  3  4  1  0  0  0  0
  4  5  1  0  0  0  0
  5  6  1  0  0  0  0
  6  7  1  0  0  0  0
  7  8  1  0  0  0  0
  8  9  1  0  0  0  0
  9 10  1  0  0  0  0
 10 11  1  0  0  0  0
  1 12  1  0  0  0  0
 12 13  2  0  0  0  0
M  END
> <ChemID>
101035

> <CAS>
2499-59-4

> <Original_SMILES>
CCCCCCCCOC(=O)C=C

> <preferred_name>
Octyl prop-2-enoate

> <dsstox_substance_id>
DTXSID8044624

> <dsstox_compound_id>
DTXCID6024624

> <qc_level>
DSSTox_Low

> <Canonical_QSARr>
CCCCCCCCOC(=O)C=C

> <InChI_Code_QSARr>
InChI=1S/C11H20O2/c1-3-5-6-7-8-9-10-13-11(12)4-2/h4H,2-3,5-10H2,1H3

> <InChI Key_QSARr>
ANISOHQJBAQUQP-UHFFFAOYSA-N

> <Salt_Solvent>


> <Salt_Solvent_ID>
0

> <MPID>
101024

> <Tr_1_Tst_0>
1

> <Ready_Biodeg>
1.0

$$$$
Row995
  Mrv171c012251911052D          

 11 10  0  0  0  0            999 V2000
    0.0042   -1.0491    0.0000 C   0  0  0  0  0  0  0  0  0  0  0  0
    0.7186   -0.6366    0.0000 C   0  0  0  0  0  0  0  0  0  0  0  0
    1.4331   -1.0491    0.0000 C   0  0  0  0  0  0  0  0  0  0  0  0
    2.1476   -0.6366    0.0000 O   0  0  0  0  0  0  0  0  0  0  0  0
    2.8620   -1.0491    0.0000 C   0  0  0  0  0  0  0  0  0  0  0  0
    3.5765   -0.6366    0.0000 C   0  0  0  0  0  0  0  0  0  0  0  0
    4.2910   -1.0491    0.0000 C   0  0  0  0  0  0  0  0  0  0  0  0
    5.0055   -0.6366    0.0000 C   0  0  0  0  0  0  0  0  0  0  0  0
    5.7199   -1.0491    0.0000 C   0  0  0  0  0  0  0  0  0  0  0  0
    6.4344   -0.6366    0.0000 C   0  0  0  0  0  0  0  0  0  0  0  0
    1.4331   -1.8741    0.0000 O   0  0  0  0  0  0  0  0  0  0  0  0
  1  2  2  0  0  0  0
  2  3  1  0  0  0  0
  3  4  1  0  0  0  0
  4  5  1  0  0  0  0
  5  6  1  0  0  0  0
  6  7  1  0  0  0  0
  7  8  1  0  0  0  0
  8  9  1  0  0  0  0
  9 10  1  0  0  0  0
  3 11  2  0  0  0  0
M  END
> <ChemID>
101036

> <CAS>
2499-95-8

> <Original_SMILES>
CCCCCCOC(=O)C=C

> <preferred_name>
Hexyl acrylate

> <dsstox_substance_id>
DTXSID5022194

> <dsstox_compound_id>
DTXCID702194

> <qc_level>
DSSTox_Low

> <Canonical_QSARr>
CCCCCCOC(=O)C=C

> <InChI_Code_QSARr>
InChI=1S/C9H16O2/c1-3-5-6-7-8-11-9(10)4-2/h4H,2-3,5-8H2,1H3

> <InChI Key_QSARr>
LNMQRPPRQDGUDR-UHFFFAOYSA-N

> <Salt_Solvent>


> <Salt_Solvent_ID>
0

> <MPID>
101025

> <Tr_1_Tst_0>
0

> <Ready_Biodeg>
1.0

$$$$
Row996
  Mrv171c012251911052D          

  7  6  0  0  0  0            999 V2000
    0.6153   -0.8231    0.0000 C   0  0  0  0  0  0  0  0  0  0  0  0
   -0.0992   -1.2356    0.0000 O   0  0  0  0  0  0  0  0  0  0  0  0
    1.3298   -1.2356    0.0000 C   0  0  0  0  0  0  0  0  0  0  0  0
    2.0442   -0.8231    0.0000 C   0  0  0  0  0  0  0  0  0  0  0  0
    2.7587   -1.2356    0.0000 O   0  0  0  0  0  0  0  0  0  0  0  0
    3.4732   -0.8231    0.0000 C   0  0  0  0  0  0  0  0  0  0  0  0
    2.0442    0.0019    0.0000 C   0  0  0  0  0  0  0  0  0  0  0  0
  1  2  1  0  0  0  0
  1  3  1  0  0  0  0
  3  4  1  0  0  0  0
  4  5  1  0  0  0  0
  5  6  1  0  0  0  0
  4  7  1  0  0  0  0
M  END
> <ChemID>
101037

> <CAS>
2517-43-3

> <Original_SMILES>
COC(C)CCO

> <preferred_name>
3-Methoxybutan-1-ol

> <dsstox_substance_id>
DTXSID0044812

> <dsstox_compound_id>
DTXCID8024812

> <qc_level>
DSSTox_Low

> <Canonical_QSARr>
COC(C)CCO

> <InChI_Code_QSARr>
InChI=1S/C5H12O2/c1-5(7-2)3-4-6/h5-6H,3-4H2,1-2H3

> <InChI Key_QSARr>
JSGVZVOGOQILFM-UHFFFAOYSA-N

> <Salt_Solvent>


> <Salt_Solvent_ID>
0

> <MPID>
101026

> <Tr_1_Tst_0>
1

> <Ready_Biodeg>
1.0

$$$$
Row997
  Mrv171c012251911052D          

  7  6  0  0  0  0            999 V2000
   -0.1914    0.7145    0.0000 C   0  0  0  0  0  0  0  0  0  0  0  0
    0.5231    1.1270    0.0000 C   0  0  0  0  0  0  0  0  0  0  0  0
    1.2376    0.7145    0.0000 O   0  0  0  0  0  0  0  0  0  0  0  0
    1.9520    1.1270    0.0000 C   0  0  0  0  0  0  0  0  0  0  0  0
    1.9520    1.9520    0.0000 O   0  0  0  0  0  0  0  0  0  0  0  0
    2.6665    0.7145    0.0000 C   0  0  0  0  0  0  0  0  0  0  0  0
    3.3810    1.1270    0.0000 Cl  0  0  0  0  0  0  0  0  0  0  0  0
  1  2  2  0  0  0  0
  2  3  1  0  0  0  0
  3  4  1  0  0  0  0
  4  5  2  0  0  0  0
  4  6  1  0  0  0  0
  6  7  1  0  0  0  0
M  END
> <ChemID>
101038

> <CAS>
2549-51-1

> <Original_SMILES>
C=COC(=O)CCl

> <preferred_name>
Acetic acid, 2-chloro-, ethenyl ester

> <dsstox_substance_id>
DTXSID0062509

> <dsstox_compound_id>
DTXCID1037309

> <qc_level>
Public_High

> <Canonical_QSARr>
C=COC(=O)CCl

> <InChI_Code_QSARr>
InChI=1S/C4H5ClO2/c1-2-7-4(6)3-5/h2H,1,3H2

> <InChI Key_QSARr>
XJELOQYISYPGDX-UHFFFAOYSA-N

> <Salt_Solvent>


> <Salt_Solvent_ID>
0

> <MPID>
101027

> <Tr_1_Tst_0>
1

> <Ready_Biodeg>
1.0

$$$$
Row998
  Mrv171c012251911052D          

 11 11  0  0  0  0            999 V2000
    3.0545    0.8244    0.0000 C   0  0  0  0  0  0  0  0  0  0  0  0
    2.3400    0.4119    0.0000 C   0  0  0  0  0  0  0  0  0  0  0  0
    1.6256    0.8244    0.0000 O   0  0  0  0  0  0  0  0  0  0  0  0
    2.3400   -0.4131    0.0000 C   0  0  0  0  0  0  0  0  0  0  0  0
    1.6256   -0.8256    0.0000 C   0  0  0  0  0  0  0  0  0  0  0  0
    1.6256   -1.6506    0.0000 C   0  0  0  0  0  0  0  0  0  0  0  0
    0.9111   -2.0631    0.0000 C   0  0  0  0  0  0  0  0  0  0  0  0
    0.9111   -2.8881    0.0000 C   0  0  0  0  0  0  0  0  0  0  0  0
    1.6256   -3.3006    0.0000 C   0  0  0  0  0  0  0  0  0  0  0  0
    2.3400   -2.8881    0.0000 C   0  0  0  0  0  0  0  0  0  0  0  0
    2.3400   -2.0631    0.0000 C   0  0  0  0  0  0  0  0  0  0  0  0
  1  2  1  0  0  0  0
  2  3  2  0  0  0  0
  2  4  1  0  0  0  0
  4  5  1  0  0  0  0
  5  6  1  0  0  0  0
  7  6  1  0  0  0  0
  8  7  2  0  0  0  0
  9  8  1  0  0  0  0
 10  9  2  0  0  0  0
 11 10  1  0  0  0  0
  6 11  2  0  0  0  0
M  END
> <ChemID>
101039

> <CAS>
2550-26-7

> <Original_SMILES>
CC(=O)CCc1ccccc1

> <preferred_name>
Benzylacetone

> <dsstox_substance_id>
DTXSID6033241

> <dsstox_compound_id>
DTXCID4013241

> <qc_level>
DSSTox_Low

> <Canonical_QSARr>
CC(=O)CCC1C=CC=CC=1

> <InChI_Code_QSARr>
InChI=1S/C10H12O/c1-9(11)7-8-10-5-3-2-4-6-10/h2-6H,7-8H2,1H3

> <InChI Key_QSARr>
AKGGYBADQZYZPD-UHFFFAOYSA-N

> <Salt_Solvent>


> <Salt_Solvent_ID>
0

> <MPID>
101028

> <Tr_1_Tst_0>
1

> <Ready_Biodeg>
0.0

$$$$
Row999
  Mrv171c012251911052D          

 11 11  0  0  0  0            999 V2000
    0.9743    0.4875    0.0000 C   0  0  0  0  0  0  0  0  0  0  0  0
    0.9743   -0.3375    0.0000 N   0  3  0  0  0  0  0  0  0  0  0  0
    0.2598   -0.7500    0.0000 O   0  5  0  0  0  0  0  0  0  0  0  0
    1.6887   -0.7500    0.0000 O   0  0  0  0  0  0  0  0  0  0  0  0
    1.6887    0.9000    0.0000 C   0  0  0  0  0  0  0  0  0  0  0  0
    1.6887    1.7250    0.0000 C   0  0  0  0  0  0  0  0  0  0  0  0
    0.9743    2.1375    0.0000 C   0  0  0  0  0  0  0  0  0  0  0  0
    0.9743    2.9625    0.0000 O   0  0  0  0  0  0  0  0  0  0  0  0
    0.2598    1.7250    0.0000 C   0  0  0  0  0  0  0  0  0  0  0  0
    0.2598    0.9000    0.0000 C   0  0  0  0  0  0  0  0  0  0  0  0
   -0.4547    0.4875    0.0000 C   0  0  0  0  0  0  0  0  0  0  0  0
  1  2  1  0  0  0  0
  2  3  1  0  0  0  0
  2  4  2  0  0  0  0
  5  1  1  0  0  0  0
  6  5  2  0  0  0  0
  7  6  1  0  0  0  0
  7  8  1  0  0  0  0
  9  7  2  0  0  0  0
 10  9  1  0  0  0  0
  1 10  2  0  0  0  0
 10 11  1  0  0  0  0
M  CHG  2   2   1   3  -1
M  END
> <ChemID>
101040

> <CAS>
2581-34-2

> <Original_SMILES>
Cc1cc(O)ccc1[N+]([O-])=O

> <preferred_name>
4-Nitro-m-cresol

> <dsstox_substance_id>
DTXSID2062535

> <dsstox_compound_id>
DTXCID2037398

> <qc_level>
Public_High

> <Canonical_QSARr>
CC1C=C(O)C=CC=1[N+]([O-])=O

> <InChI_Code_QSARr>
InChI=1S/C7H7NO3/c1-5-4-6(9)2-3-7(5)8(10)11/h2-4,9H,1H3

> <InChI Key_QSARr>
PIIZYNQECPTVEO-UHFFFAOYSA-N

> <Salt_Solvent>


> <Salt_Solvent_ID>
0

> <MPID>
101029

> <Tr_1_Tst_0>
0

> <Ready_Biodeg>
0.0

$$$$
Row1000
  Mrv171c012251911052D          

 19 19  0  0  0  0            999 V2000
    2.8679   -2.0669    0.0000 C   0  0  0  0  0  0  0  0  0  0  0  0
    2.8679   -1.2419    0.0000 C   0  0  0  0  0  0  0  0  0  0  0  0
    3.5824   -0.8294    0.0000 S   0  0  0  0  0  0  0  0  0  0  0  0
    4.2969   -1.2419    0.0000 P   0  0  0  0  0  0  0  0  0  0  0  0
    3.8844   -1.9564    0.0000 S   0  0  0  0  0  0  0  0  0  0  0  0
    5.0113   -1.6544    0.0000 O   0  0  0  0  0  0  0  0  0  0  0  0
    5.7258   -1.2419    0.0000 C   0  0  0  0  0  0  0  0  0  0  0  0
    4.7094   -0.5274    0.0000 O   0  0  0  0  0  0  0  0  0  0  0  0
    5.5344   -0.5274    0.0000 C   0  0  0  0  0  0  0  0  0  0  0  0
    2.1534   -0.8294    0.0000 C   0  0  0  0  0  0  0  0  0  0  0  0
    1.4390   -1.2419    0.0000 O   0  0  0  0  0  0  0  0  0  0  0  0
    0.7245   -0.8294    0.0000 C   0  0  0  0  0  0  0  0  0  0  0  0
    0.0100   -1.2419    0.0000 C   0  0  0  0  0  0  0  0  0  0  0  0
    2.1534   -0.0044    0.0000 O   0  0  0  0  0  0  0  0  0  0  0  0
    2.1534   -2.4794    0.0000 C   0  0  0  0  0  0  0  0  0  0  0  0
    2.1534   -3.3044    0.0000 C   0  0  0  0  0  0  0  0  0  0  0  0
    2.8679   -3.7169    0.0000 C   0  0  0  0  0  0  0  0  0  0  0  0
    3.5824   -3.3044    0.0000 C   0  0  0  0  0  0  0  0  0  0  0  0
    3.5824   -2.4794    0.0000 C   0  0  0  0  0  0  0  0  0  0  0  0
  1  2  1  0  0  0  0
  2  3  1  0  0  0  0
  3  4  1  0  0  0  0
  4  5  2  0  0  0  0
  4  6  1  0  0  0  0
  6  7  1  0  0  0  0
  4  8  1  0  0  0  0
  8  9  1  0  0  0  0
  2 10  1  0  0  0  0
 10 11  1  0  0  0  0
 11 12  1  0  0  0  0
 12 13  1  0  0  0  0
 10 14  2  0  0  0  0
 15  1  2  0  0  0  0
 16 15  1  0  0  0  0
 17 16  2  0  0  0  0
 18 17  1  0  0  0  0
 19 18  2  0  0  0  0
  1 19  1  0  0  0  0
M  END
> <ChemID>
101041

> <CAS>
2597-03-7

> <Original_SMILES>
CCOC(=O)C(SP(=S)(OC)OC)c1ccccc1

> <preferred_name>
Phenthoate

> <dsstox_substance_id>
DTXSID6042280

> <dsstox_compound_id>
DTXCID4022280

> <qc_level>
DSSTox_Low

> <Canonical_QSARr>
CCOC(=O)C(SP(=S)(OC)OC)C1C=CC=CC=1

> <InChI_Code_QSARr>
InChI=1S/C12H17O4PS2/c1-4-16-12(13)11(10-8-6-5-7-9-10)19-17(18,14-2)15-3/h5-9,11H,4H2,1-3H3

> <InChI Key_QSARr>
XAMUDJHXFNRLCY-UHFFFAOYSA-N

> <Salt_Solvent>


> <Salt_Solvent_ID>
0

> <MPID>
101030

> <Tr_1_Tst_0>
1

> <Ready_Biodeg>
0.0

$$$$
Row1001
  Mrv171c012251911052D          

 32 31  0  0  0  0            999 V2000
   25.9879   10.0026    0.0000 C   0  0  0  0  0  0  0  0  0  0  0  0
   25.2735   10.4151    0.0000 C   0  0  0  0  0  0  0  0  0  0  0  0
   24.5590   10.0026    0.0000 C   0  0  0  0  0  0  0  0  0  0  0  0
   23.8445   10.4151    0.0000 C   0  0  0  0  0  0  0  0  0  0  0  0
   23.1301   10.0026    0.0000 C   0  0  0  0  0  0  0  0  0  0  0  0
   22.4156   10.4151    0.0000 C   0  0  0  0  0  0  0  0  0  0  0  0
   21.7011   10.0026    0.0000 C   0  0  0  0  0  0  0  0  0  0  0  0
   20.9866   10.4151    0.0000 C   0  0  0  0  0  0  0  0  0  0  0  0
   20.2722   10.0026    0.0000 C   0  0  0  0  0  0  0  0  0  0  0  0
   19.5577   10.4151    0.0000 C   0  0  0  0  0  0  0  0  0  0  0  0
   18.8432   10.0026    0.0000 C   0  0  0  0  0  0  0  0  0  0  0  0
   18.1288   10.4151    0.0000 C   0  0  0  0  0  0  0  0  0  0  0  0
   17.4143   10.0026    0.0000 C   0  0  0  0  0  0  0  0  0  0  0  0
   16.6998   10.4151    0.0000 C   0  0  0  0  0  0  0  0  0  0  0  0
   26.7024   10.4151    0.0000 O   0  0  0  0  0  0  0  0  0  0  0  0
   27.4169   10.0026    0.0000 C   0  0  0  0  0  0  0  0  0  0  0  0
   28.1314   10.4151    0.0000 C   0  0  0  0  0  0  0  0  0  0  0  0
   28.8458   10.0026    0.0000 C   0  0  0  0  0  0  0  0  0  0  0  0
   29.5603   10.4151    0.0000 C   0  0  0  0  0  0  0  0  0  0  0  0
   30.2748   10.0026    0.0000 C   0  0  0  0  0  0  0  0  0  0  0  0
   30.9892   10.4151    0.0000 C   0  0  0  0  0  0  0  0  0  0  0  0
   31.7037   10.0026    0.0000 C   0  0  0  0  0  0  0  0  0  0  0  0
   32.4182   10.4151    0.0000 C   0  0  0  0  0  0  0  0  0  0  0  0
   33.1326   10.0026    0.0000 C   0  0  0  0  0  0  0  0  0  0  0  0
   33.8471   10.4151    0.0000 C   0  0  0  0  0  0  0  0  0  0  0  0
   34.5616   10.0026    0.0000 C   0  0  0  0  0  0  0  0  0  0  0  0
   35.2761   10.4151    0.0000 C   0  0  0  0  0  0  0  0  0  0  0  0
   35.9905   10.0026    0.0000 C   0  0  0  0  0  0  0  0  0  0  0  0
   36.7050   10.4151    0.0000 C   0  0  0  0  0  0  0  0  0  0  0  0
   37.4195   10.0026    0.0000 C   0  0  0  0  0  0  0  0  0  0  0  0
   38.1339   10.4151    0.0000 C   0  0  0  0  0  0  0  0  0  0  0  0
   25.9879    9.1776    0.0000 O   0  0  0  0  0  0  0  0  0  0  0  0
  1  2  1  0  0  0  0
  2  3  1  0  0  0  0
  3  4  1  0  0  0  0
  4  5  1  0  0  0  0
  5  6  1  0  0  0  0
  6  7  1  0  0  0  0
  7  8  1  0  0  0  0
  8  9  1  0  0  0  0
  9 10  1  0  0  0  0
 10 11  1  0  0  0  0
 11 12  1  0  0  0  0
 12 13  1  0  0  0  0
 13 14  1  0  0  0  0
  1 15  1  0  0  0  0
 15 16  1  0  0  0  0
 16 17  1  0  0  0  0
 17 18  1  0  0  0  0
 18 19  1  0  0  0  0
 19 20  1  0  0  0  0
 20 21  1  0  0  0  0
 21 22  1  0  0  0  0
 22 23  1  0  0  0  0
 23 24  1  0  0  0  0
 24 25  1  0  0  0  0
 25 26  1  0  0  0  0
 26 27  1  0  0  0  0
 27 28  1  0  0  0  0
 28 29  1  0  0  0  0
 29 30  1  0  0  0  0
 30 31  1  0  0  0  0
  1 32  2  0  0  0  0
M  END
> <ChemID>
101042

> <CAS>
2599-01-1

> <Original_SMILES>
CCCCCCCCCCCCCC(=O)OCCCCCCCCCCCCCCCC

> <preferred_name>
Cetyl myristate

> <dsstox_substance_id>
DTXSID1062546

> <dsstox_compound_id>
DTXCID1037430

> <qc_level>
Public_High

> <Canonical_QSARr>
CCCCCCCCCCCCCC(=O)OCCCCCCCCCCCCCCCC

> <InChI_Code_QSARr>
InChI=1S/C30H60O2/c1-3-5-7-9-11-13-15-16-17-19-21-23-25-27-29-32-30(31)28-26-24-22-20-18-14-12-10-8-6-4-2/h3-29H2,1-2H3

> <InChI Key_QSARr>
QAKXLTNAJLFSQC-UHFFFAOYSA-N

> <Salt_Solvent>


> <Salt_Solvent_ID>
0

> <MPID>
101031

> <Tr_1_Tst_0>
1

> <Ready_Biodeg>
1.0

$$$$
Row1002
  Mrv171c012251911052D          

 13 13  0  0  0  0            999 V2000
    1.8136    0.2856    0.0000 C   0  0  0  0  0  0  0  0  0  0  0  0
    2.5281   -0.1269    0.0000 N   0  0  0  0  0  0  0  0  0  0  0  0
    3.2426    0.2856    0.0000 C   0  0  0  0  0  0  0  0  0  0  0  0
    3.9571   -0.1269    0.0000 C   0  0  0  0  0  0  0  0  0  0  0  0
    1.8136    1.1106    0.0000 N   0  0  0  0  0  0  0  0  0  0  0  0
    1.0992    1.5231    0.0000 C   0  0  0  0  0  0  0  0  0  0  0  0
    1.0992    2.3481    0.0000 O   0  0  0  0  0  0  0  0  0  0  0  0
    0.3847    1.1106    0.0000 N   0  0  0  0  0  0  0  0  0  0  0  0
    0.3847    0.2856    0.0000 C   0  0  0  0  0  0  0  0  0  0  0  0
   -0.3298   -0.1269    0.0000 N   0  0  0  0  0  0  0  0  0  0  0  0
   -1.0442    0.2856    0.0000 C   0  0  0  0  0  0  0  0  0  0  0  0
   -1.7587   -0.1269    0.0000 C   0  0  0  0  0  0  0  0  0  0  0  0
    1.0992   -0.1269    0.0000 N   0  0  0  0  0  0  0  0  0  0  0  0
  1  2  1  0  0  0  0
  2  3  1  0  0  0  0
  3  4  1  0  0  0  0
  5  1  2  0  0  0  0
  6  5  1  0  0  0  0
  6  7  2  0  0  0  0
  8  6  1  0  0  0  0
  9  8  1  0  0  0  0
  9 10  1  0  0  0  0
 10 11  1  0  0  0  0
 11 12  1  0  0  0  0
 13  9  2  0  0  0  0
  1 13  1  0  0  0  0
M  END
> <ChemID>
101043

> <CAS>
NOCAS_62547

> <Original_SMILES>
CCNC1NC(=O)N=C(NCC)N=1

> <preferred_name>
1,3,5-Triazin-2(1H)-one, 4,6-bis(ethylamino)-

> <dsstox_substance_id>
DTXSID6062547

> <dsstox_compound_id>
DTXCID6037431

> <qc_level>
Public_High

> <Canonical_QSARr>
CCNC1NC(=O)N=C(NCC)N=1

> <InChI_Code_QSARr>
InChI=1S/C7H13N5O/c1-3-8-5-10-6(9-4-2)12-7(13)11-5/h3-4H2,1-2H3,(H3,8,9,10,11,12,13)

> <InChI Key_QSARr>
YQIXRXMOJFQVBV-UHFFFAOYSA-N

> <Salt_Solvent>


> <Salt_Solvent_ID>
0

> <MPID>
101032

> <Tr_1_Tst_0>
1

> <Ready_Biodeg>
0.0

$$$$
Row1003
  Mrv171c012251911052D          

 35 38  0  0  0  0            999 V2000
    0.7145   -3.7125    0.0000 O   0  0  0  0  0  0  0  0  0  0  0  0
    1.4289   -4.1250    0.0000 C   0  0  0  0  0  0  0  0  0  0  0  0
    1.4289   -4.9500    0.0000 C   0  0  0  0  0  0  0  0  0  0  0  0
    2.1434   -5.3625    0.0000 C   0  0  0  0  0  0  0  0  0  0  0  0
    2.8579   -4.9500    0.0000 C   0  0  0  0  0  0  0  0  0  0  0  0
    3.5724   -5.3625    0.0000 C   0  0  0  0  0  0  0  0  0  0  0  0
    4.2868   -4.9500    0.0000 C   0  0  0  0  0  0  0  0  0  0  0  0
    4.2868   -4.1250    0.0000 C   0  0  0  0  0  0  0  0  0  0  0  0
    3.5724   -3.7125    0.0000 C   0  0  0  0  0  0  0  0  0  0  0  0
    2.8579   -4.1250    0.0000 C   0  0  0  0  0  0  0  0  0  0  0  0
    2.1434   -3.7125    0.0000 C   0  0  0  0  0  0  0  0  0  0  0  0
    2.1434   -2.8875    0.0000 N   0  0  0  0  0  0  0  0  0  0  0  0
    1.4289   -2.4750    0.0000 N   0  0  0  0  0  0  0  0  0  0  0  0
    1.4289   -1.6500    0.0000 C   0  0  0  0  0  0  0  0  0  0  0  0
    0.7145   -1.2375    0.0000 C   0  0  0  0  0  0  0  0  0  0  0  0
    0.7145   -0.4125    0.0000 C   0  0  0  0  0  0  0  0  0  0  0  0
    1.4289    0.0000    0.0000 C   0  0  0  0  0  0  0  0  0  0  0  0
    2.1434   -0.4125    0.0000 C   0  0  0  0  0  0  0  0  0  0  0  0
    2.8579    0.0000    0.0000 C   0  0  0  0  0  0  0  0  0  0  0  0
    3.5724   -0.4125    0.0000 C   0  0  0  0  0  0  0  0  0  0  0  0
    3.5724   -1.2375    0.0000 C   0  0  0  0  0  0  0  0  0  0  0  0
    2.8579   -1.6500    0.0000 C   0  0  0  0  0  0  0  0  0  0  0  0
    2.1434   -1.2375    0.0000 C   0  0  0  0  0  0  0  0  0  0  0  0
    1.4289    0.8250    0.0000 S   0  0  0  0  0  0  0  0  0  0  0  0
    1.4289    1.6500    0.0000 O   0  0  0  0  0  0  0  0  0  0  0  0
    0.6039    0.8250    0.0000 O   0  0  0  0  0  0  0  0  0  0  0  0
    2.2539    0.8250    0.0000 O   0  0  0  0  0  0  0  0  0  0  0  0
    3.5724   -2.8875    0.0000 S   0  0  0  0  0  0  0  0  0  0  0  0
    4.3974   -2.8875    0.0000 O   0  0  0  0  0  0  0  0  0  0  0  0
    2.7474   -2.8875    0.0000 O   0  0  0  0  0  0  0  0  0  0  0  0
    3.5724   -2.0625    0.0000 O   0  0  0  0  0  0  0  0  0  0  0  0
    5.0013   -5.3625    0.0000 S   0  0  0  0  0  0  0  0  0  0  0  0
    5.7158   -5.7750    0.0000 O   0  0  0  0  0  0  0  0  0  0  0  0
    4.5888   -6.0770    0.0000 O   0  0  0  0  0  0  0  0  0  0  0  0
    5.4138   -4.6480    0.0000 O   0  0  0  0  0  0  0  0  0  0  0  0
  1  2  1  0  0  0  0
  2  3  2  0  0  0  0
  3  4  1  0  0  0  0
  4  5  2  0  0  0  0
  5  6  1  0  0  0  0
  6  7  2  0  0  0  0
  7  8  1  0  0  0  0
  8  9  2  0  0  0  0
  9 10  1  0  0  0  0
  5 10  1  0  0  0  0
 10 11  2  0  0  0  0
  2 11  1  0  0  0  0
 12 11  1  4  0  0  0
 12 13  2  0  0  0  0
 13 14  1  0  0  0  0
 14 15  2  0  0  0  0
 15 16  1  0  0  0  0
 16 17  2  0  0  0  0
 17 18  1  0  0  0  0
 18 19  2  0  0  0  0
 19 20  1  0  0  0  0
 20 21  2  0  0  0  0
 21 22  1  0  0  0  0
 22 23  2  0  0  0  0
 14 23  1  0  0  0  0
 18 23  1  0  0  0  0
 17 24  1  0  0  0  0
 24 25  1  0  0  0  0
 24 26  2  0  0  0  0
 24 27  2  0  0  0  0
  9 28  1  0  0  0  0
 28 29  1  0  0  0  0
 28 30  2  0  0  0  0
 28 31  2  0  0  0  0
  7 32  1  0  0  0  0
 32 33  1  0  0  0  0
 32 34  2  0  0  0  0
 32 35  2  0  0  0  0
M  END
> <ChemID>
101044

> <CAS>
2611-82-7

> <Original_SMILES>
[Na+].[Na+].[Na+].[O-]S(=O)(=O)c1cc(c2c(/N=N\c3ccc(c4ccccc34)S([O-])(=O)=O)c(O)ccc2c1)S([O-])(=O)=O

> <preferred_name>
SX purple

> <dsstox_substance_id>
DTXSID9021213

> <dsstox_compound_id>
DTXCID001213

> <qc_level>
DSSTox_Low

> <Canonical_QSARr>
OC1=CC=C2C=C(C=C(C2=C1N=NC1=CC=C(C2=CC=CC=C12)S(O)(=O)=O)S(O)(=O)=O)S(O)(=O)=O

> <InChI_Code_QSARr>
InChI=1S/C20H14N2O10S3/c23-16-7-5-11-9-12(33(24,25)26)10-18(35(30,31)32)19(11)20(16)22-21-15-6-8-17(34(27,28)29)14-4-2-1-3-13(14)15/h1-10,23H,(H,24,25,26)(H,27,28,29)(H,30,31,32)

> <InChI Key_QSARr>
JZGWEIPJUAIDHM-UHFFFAOYSA-N

> <Salt_Solvent>
[Na+]

> <Salt_Solvent_ID>
110

> <MPID>
101033

> <Tr_1_Tst_0>
0

> <Ready_Biodeg>
0.0

$$$$
Row1004
  Mrv171c012251911052D          

 17 16  0  0  0  0            999 V2000
    1.7221   -0.9973    0.0000 P   0  0  0  0  0  0  0  0  0  0  0  0
    1.0076   -1.4098    0.0000 O   0  0  0  0  0  0  0  0  0  0  0  0
    2.1346   -1.7118    0.0000 O   0  0  0  0  0  0  0  0  0  0  0  0
    2.4365   -0.5848    0.0000 O   0  0  0  0  0  0  0  0  0  0  0  0
    3.1510   -0.9973    0.0000 C   0  0  0  0  0  0  0  0  0  0  0  0
    3.8655   -0.5848    0.0000 C   0  0  0  0  0  0  0  0  0  0  0  0
    4.5800   -0.9973    0.0000 C   0  0  0  0  0  0  0  0  0  0  0  0
    5.2944   -0.5848    0.0000 C   0  0  0  0  0  0  0  0  0  0  0  0
    6.0089   -0.9973    0.0000 C   0  0  0  0  0  0  0  0  0  0  0  0
    6.7234   -0.5848    0.0000 C   0  0  0  0  0  0  0  0  0  0  0  0
    7.4378   -0.9973    0.0000 C   0  0  0  0  0  0  0  0  0  0  0  0
    8.1523   -0.5848    0.0000 C   0  0  0  0  0  0  0  0  0  0  0  0
    8.8668   -0.9973    0.0000 C   0  0  0  0  0  0  0  0  0  0  0  0
    9.5813   -0.5848    0.0000 C   0  0  0  0  0  0  0  0  0  0  0  0
   10.2957   -0.9973    0.0000 C   0  0  0  0  0  0  0  0  0  0  0  0
   11.0102   -0.5848    0.0000 C   0  0  0  0  0  0  0  0  0  0  0  0
    1.3096   -0.2828    0.0000 O   0  0  0  0  0  0  0  0  0  0  0  0
  1  2  1  0  0  0  0
  1  3  1  0  0  0  0
  1  4  1  0  0  0  0
  4  5  1  0  0  0  0
  5  6  1  0  0  0  0
  6  7  1  0  0  0  0
  7  8  1  0  0  0  0
  8  9  1  0  0  0  0
  9 10  1  0  0  0  0
 10 11  1  0  0  0  0
 11 12  1  0  0  0  0
 12 13  1  0  0  0  0
 13 14  1  0  0  0  0
 14 15  1  0  0  0  0
 15 16  1  0  0  0  0
  1 17  2  0  0  0  0
M  END
> <ChemID>
101045

> <CAS>
12751-23-4

> <Original_SMILES>
CCCCCCCCCCCCOP(O)(O)=O

> <preferred_name>
Dodecyl dihydrogen phosphate

> <dsstox_substance_id>
DTXSID9044530

> <dsstox_compound_id>
DTXCID7024530

> <qc_level>
DSSTox_Low

> <Canonical_QSARr>
CCCCCCCCCCCCOP(O)(O)=O

> <InChI_Code_QSARr>
InChI=1S/C12H27O4P/c1-2-3-4-5-6-7-8-9-10-11-12-16-17(13,14)15/h2-12H2,1H3,(H2,13,14,15)

> <InChI Key_QSARr>
TVACALAUIQMRDF-UHFFFAOYSA-N

> <Salt_Solvent>


> <Salt_Solvent_ID>
0

> <MPID>
101034

> <Tr_1_Tst_0>
0

> <Ready_Biodeg>
1.0

$$$$
Row1005
  Mrv171c012251911052D          

 16 16  0  0  0  0            999 V2000
    3.2530    1.1361    0.0000 O   0  0  0  0  0  0  0  0  0  0  0  0
    3.4245    0.3291    0.0000 C   0  0  0  0  0  0  0  0  0  0  0  0
    2.8725   -0.2840    0.0000 C   0  0  0  0  0  0  0  0  0  0  0  0
    3.2850   -0.9985    0.0000 C   0  0  0  0  0  0  0  0  0  0  0  0
    4.0920   -0.8270    0.0000 C   0  0  0  0  0  0  0  0  0  0  0  0
    4.7051   -1.3790    0.0000 C   0  0  0  0  0  0  0  0  0  0  0  0
    4.5335   -2.1860    0.0000 C   0  0  0  0  0  0  0  0  0  0  0  0
    3.7489   -2.4409    0.0000 O   0  0  0  0  0  0  0  0  0  0  0  0
    5.1466   -2.7380    0.0000 O   0  0  0  0  0  0  0  0  0  0  0  0
    4.9751   -3.5450    0.0000 C   0  0  0  0  0  0  0  0  0  0  0  0
    4.1782   -0.0065    0.0000 C   0  0  0  0  0  0  0  0  0  0  0  0
    4.8927    0.4060    0.0000 C   0  0  0  0  0  0  0  0  0  0  0  0
    5.6072   -0.0065    0.0000 C   0  0  0  0  0  0  0  0  0  0  0  0
    6.3216    0.4060    0.0000 C   0  0  0  0  0  0  0  0  0  0  0  0
    7.0361   -0.0065    0.0000 C   0  0  0  0  0  0  0  0  0  0  0  0
    7.7506    0.4060    0.0000 C   0  0  0  0  0  0  0  0  0  0  0  0
  1  2  2  0  0  0  0
  3  2  1  0  0  0  0
  4  3  1  0  0  0  0
  5  4  1  0  0  0  0
  5  6  1  0  0  0  0
  6  7  1  0  0  0  0
  7  8  2  0  0  0  0
  7  9  1  0  0  0  0
  9 10  1  0  0  0  0
 11  5  1  0  0  0  0
  2 11  1  0  0  0  0
 11 12  1  0  0  0  0
 12 13  1  0  0  0  0
 13 14  1  0  0  0  0
 14 15  1  0  0  0  0
 15 16  1  0  0  0  0
M  END
> <ChemID>
101046

> <CAS>
24851-98-7

> <Original_SMILES>
CCCCC[C@H]1[C@@H](CCC1=O)CC(=O)OC

> <preferred_name>
Methyl dihydrojasmonate, (+-)-trans-|Methyl dihydrojasmonate

> <dsstox_substance_id>
DTXSID2029325

> <dsstox_compound_id>
DTXCID109325

> <qc_level>
Public_Medium

> <Canonical_QSARr>
CCCCCC1C(CCC1=O)CC(=O)OC

> <InChI_Code_QSARr>
InChI=1S/C13H22O3/c1-3-4-5-6-11-10(7-8-12(11)14)9-13(15)16-2/h10-11H,3-9H2,1-2H3

> <InChI Key_QSARr>
KVWWIYGFBYDJQC-UHFFFAOYSA-N

> <Salt_Solvent>


> <Salt_Solvent_ID>
0

> <MPID>
101035|101150

> <Tr_1_Tst_0>
1

> <Ready_Biodeg>
1.0

$$$$
Row1006
  Mrv171c012251911052D          

 14 14  0  0  0  0            999 V2000
    0.2756   -2.2800    0.0000 C   0  0  0  0  0  0  0  0  0  0  0  0
   -0.4388   -1.8675    0.0000 N   0  0  0  0  0  0  0  0  0  0  0  0
   -0.4388   -1.0425    0.0000 C   0  0  0  0  0  0  0  0  0  0  0  0
    0.9901   -1.8675    0.0000 O   0  0  0  0  0  0  0  0  0  0  0  0
    1.7046   -2.2800    0.0000 C   0  0  0  0  0  0  0  0  0  0  0  0
    1.7046   -3.1050    0.0000 C   0  0  0  0  0  0  0  0  0  0  0  0
    2.4190   -3.5175    0.0000 C   0  0  0  0  0  0  0  0  0  0  0  0
    3.1335   -3.1050    0.0000 C   0  0  0  0  0  0  0  0  0  0  0  0
    3.1335   -2.2800    0.0000 C   0  0  0  0  0  0  0  0  0  0  0  0
    2.4190   -1.8675    0.0000 C   0  0  0  0  0  0  0  0  0  0  0  0
    2.4190   -1.0425    0.0000 C   0  0  0  0  0  0  0  0  0  0  0  0
    1.7046   -0.6300    0.0000 C   0  0  0  0  0  0  0  0  0  0  0  0
    3.1335   -0.6300    0.0000 C   0  0  0  0  0  0  0  0  0  0  0  0
    0.2756   -3.1050    0.0000 O   0  0  0  0  0  0  0  0  0  0  0  0
  1  2  1  0  0  0  0
  2  3  1  0  0  0  0
  1  4  1  0  0  0  0
  4  5  1  0  0  0  0
  6  5  1  0  0  0  0
  7  6  2  0  0  0  0
  8  7  1  0  0  0  0
  9  8  2  0  0  0  0
 10  9  1  0  0  0  0
  5 10  2  0  0  0  0
 10 11  1  0  0  0  0
 11 12  1  0  0  0  0
 11 13  1  0  0  0  0
  1 14  2  0  0  0  0
M  END
> <ChemID>
101047

> <CAS>
2631-40-5

> <Original_SMILES>
CNC(=O)Oc1ccccc1C(C)C

> <preferred_name>
Isoprocarb

> <dsstox_substance_id>
DTXSID6042072

> <dsstox_compound_id>
DTXCID4022072

> <qc_level>
DSSTox_Low

> <Canonical_QSARr>
CNC(=O)OC1C=CC=CC=1C(C)C

> <InChI_Code_QSARr>
InChI=1S/C11H15NO2/c1-8(2)9-6-4-5-7-10(9)14-11(13)12-3/h4-8H,1-3H3,(H,12,13)

> <InChI Key_QSARr>
QBSJMKIUCUGGNG-UHFFFAOYSA-N

> <Salt_Solvent>


> <Salt_Solvent_ID>
0

> <MPID>
101036

> <Tr_1_Tst_0>
1

> <Ready_Biodeg>
0.0

$$$$
Row1007
  Mrv171c012251911052D          

 13 13  0  0  0  0            999 V2000
    4.2990   -2.6885    0.0000 C   0  0  0  0  0  0  0  0  0  0  0  0
    3.5845   -2.2760    0.0000 C   0  0  0  0  0  0  0  0  0  0  0  0
    3.5845   -1.4510    0.0000 C   0  0  0  0  0  0  0  0  0  0  0  0
    2.8701   -1.0385    0.0000 C   0  0  0  0  0  0  0  0  0  0  0  0
    2.8701   -0.2135    0.0000 O   0  0  0  0  0  0  0  0  0  0  0  0
    2.1556    0.1990    0.0000 C   0  0  0  0  0  0  0  0  0  0  0  0
    1.4411   -0.2135    0.0000 O   0  0  0  0  0  0  0  0  0  0  0  0
    2.1556    1.0240    0.0000 N   0  0  0  0  0  0  0  0  0  0  0  0
    1.4411    1.4365    0.0000 C   0  0  0  0  0  0  0  0  0  0  0  0
    2.1556   -1.4510    0.0000 C   0  0  0  0  0  0  0  0  0  0  0  0
    2.1556   -2.2760    0.0000 C   0  0  0  0  0  0  0  0  0  0  0  0
    1.4411   -2.6885    0.0000 C   0  0  0  0  0  0  0  0  0  0  0  0
    2.8701   -2.6885    0.0000 C   0  0  0  0  0  0  0  0  0  0  0  0
  1  2  1  0  0  0  0
  3  2  1  0  0  0  0
  4  3  2  0  0  0  0
  4  5  1  0  0  0  0
  5  6  1  0  0  0  0
  6  7  2  0  0  0  0
  6  8  1  0  0  0  0
  8  9  1  0  0  0  0
 10  4  1  0  0  0  0
 11 10  2  0  0  0  0
 11 12  1  0  0  0  0
 13 11  1  0  0  0  0
  2 13  2  0  0  0  0
M  END
> <ChemID>
101048

> <CAS>
2655-14-3

> <Original_SMILES>
CNC(=O)Oc1cc(C)cc(C)c1

> <preferred_name>
XMC

> <dsstox_substance_id>
DTXSID7058042

> <dsstox_compound_id>
DTXCID3031810

> <qc_level>
DSSTox_High

> <Canonical_QSARr>
CC1=CC(=CC(C)=C1)OC(=O)NC

> <InChI_Code_QSARr>
InChI=1S/C10H13NO2/c1-7-4-8(2)6-9(5-7)13-10(12)11-3/h4-6H,1-3H3,(H,11,12)

> <InChI Key_QSARr>
CVQODEWAPZVVBU-UHFFFAOYSA-N

> <Salt_Solvent>


> <Salt_Solvent_ID>
0

> <MPID>
101037

> <Tr_1_Tst_0>
1

> <Ready_Biodeg>
0.0

$$$$
Row1008
  Mrv171c012251911052D          

 21 22  0  0  0  0            999 V2000
    1.1908    2.3375    0.0000 C   0  0  0  0  0  0  0  0  0  0  0  0
    1.1908    3.1625    0.0000 C   0  0  0  0  0  0  0  0  0  0  0  0
    0.4763    3.5750    0.0000 C   0  0  0  0  0  0  0  0  0  0  0  0
    0.4763    4.4000    0.0000 C   0  0  0  0  0  0  0  0  0  0  0  0
    0.4763    5.2250    0.0000 C   0  0  0  0  0  0  0  0  0  0  0  0
   -0.3487    4.4000    0.0000 C   0  0  0  0  0  0  0  0  0  0  0  0
    1.3013    4.4000    0.0000 C   0  0  0  0  0  0  0  0  0  0  0  0
   -0.2382    3.1625    0.0000 C   0  0  0  0  0  0  0  0  0  0  0  0
   -0.9526    3.5750    0.0000 O   0  0  0  0  0  0  0  0  0  0  0  0
   -0.2382    2.3375    0.0000 C   0  0  0  0  0  0  0  0  0  0  0  0
   -0.9526    1.9250    0.0000 C   0  0  0  0  0  0  0  0  0  0  0  0
   -1.6671    1.5125    0.0000 C   0  0  0  0  0  0  0  0  0  0  0  0
   -0.5401    1.2105    0.0000 C   0  0  0  0  0  0  0  0  0  0  0  0
   -1.3651    2.6395    0.0000 C   0  0  0  0  0  0  0  0  0  0  0  0
    0.4763    1.9250    0.0000 C   0  0  0  0  0  0  0  0  0  0  0  0
    1.9053    1.9250    0.0000 C   0  0  0  0  0  0  0  0  0  0  0  0
    1.9053    1.1000    0.0000 C   0  0  0  0  0  0  0  0  0  0  0  0
    2.6197    0.6875    0.0000 C   0  0  0  0  0  0  0  0  0  0  0  0
    3.3342    1.1000    0.0000 C   0  0  0  0  0  0  0  0  0  0  0  0
    3.3342    1.9250    0.0000 C   0  0  0  0  0  0  0  0  0  0  0  0
    2.6197    2.3375    0.0000 C   0  0  0  0  0  0  0  0  0  0  0  0
  2  1  1  0  0  0  0
  3  2  2  0  0  0  0
  3  4  1  0  0  0  0
  4  5  1  0  0  0  0
  4  6  1  0  0  0  0
  4  7  1  0  0  0  0
  8  3  1  0  0  0  0
  8  9  1  0  0  0  0
 10  8  2  0  0  0  0
 10 11  1  0  0  0  0
 11 12  1  0  0  0  0
 11 13  1  0  0  0  0
 11 14  1  0  0  0  0
 15 10  1  0  0  0  0
  1 15  2  0  0  0  0
  1 16  1  0  0  0  0
 17 16  1  0  0  0  0
 18 17  2  0  0  0  0
 19 18  1  0  0  0  0
 20 19  2  0  0  0  0
 21 20  1  0  0  0  0
 16 21  2  0  0  0  0
M  END
> <ChemID>
101049

> <CAS>
2668-47-5

> <Original_SMILES>
CC(C)(C)c1cc(cc(c1O)C(C)(C)C)-c1ccccc1

> <preferred_name>
[1,1'-Biphenyl]-4-ol, 3,5-bis(1,1-dimethylethyl)-

> <dsstox_substance_id>
DTXSID7062582

> <dsstox_compound_id>
DTXCID8037544

> <qc_level>
Public_High

> <Canonical_QSARr>
CC(C)(C)C1=CC(=CC(=C1O)C(C)(C)C)C1C=CC=CC=1

> <InChI_Code_QSARr>
InChI=1S/C20H26O/c1-19(2,3)16-12-15(14-10-8-7-9-11-14)13-17(18(16)21)20(4,5)6/h7-13,21H,1-6H3

> <InChI Key_QSARr>
JIEWQZNTUPWNMX-UHFFFAOYSA-N

> <Salt_Solvent>


> <Salt_Solvent_ID>
0

> <MPID>
101038

> <Tr_1_Tst_0>
0

> <Ready_Biodeg>
0.0

$$$$
Row1009
  Mrv171c012251911052D          

 11 10  0  0  0  0            999 V2000
    1.3667   -1.3258    0.0000 C   0  0  0  0  0  0  0  0  0  0  0  0
    1.3667   -2.1508    0.0000 P   0  0  0  0  0  0  0  0  0  0  0  0
    1.3667   -2.9758    0.0000 O   0  0  0  0  0  0  0  0  0  0  0  0
    2.1917   -2.1508    0.0000 O   0  0  0  0  0  0  0  0  0  0  0  0
    0.5417   -2.1508    0.0000 O   0  0  0  0  0  0  0  0  0  0  0  0
    1.3667   -0.5008    0.0000 P   0  0  0  0  0  0  0  0  0  0  0  0
    1.3667    0.3242    0.0000 O   0  0  0  0  0  0  0  0  0  0  0  0
    2.1917   -0.5008    0.0000 O   0  0  0  0  0  0  0  0  0  0  0  0
    0.5417   -0.5008    0.0000 O   0  0  0  0  0  0  0  0  0  0  0  0
    2.1917   -1.3258    0.0000 C   0  0  0  0  0  0  0  0  0  0  0  0
    0.5417   -1.3258    0.0000 O   0  0  0  0  0  0  0  0  0  0  0  0
  1  2  1  0  0  0  0
  2  3  1  0  0  0  0
  2  4  2  0  0  0  0
  2  5  1  0  0  0  0
  1  6  1  0  0  0  0
  6  7  1  0  0  0  0
  6  8  2  0  0  0  0
  6  9  1  0  0  0  0
  1 10  1  0  0  0  0
  1 11  1  0  0  0  0
M  END
> <ChemID>
101050

> <CAS>
2809-21-4

> <Original_SMILES>
CC(O)(P(O)(O)=O)P(O)(O)=O

> <preferred_name>
Etidronic acid

> <dsstox_substance_id>
DTXSID6023028

> <dsstox_compound_id>
DTXCID103028

> <qc_level>
DSSTox_High

> <Canonical_QSARr>
CC(O)(P(O)(O)=O)P(O)(O)=O

> <InChI_Code_QSARr>
InChI=1S/C2H8O7P2/c1-2(3,10(4,5)6)11(7,8)9/h3H,1H3,(H2,4,5,6)(H2,7,8,9)

> <InChI Key_QSARr>
DBVJJBKOTRCVKF-UHFFFAOYSA-N

> <Salt_Solvent>


> <Salt_Solvent_ID>
0

> <MPID>
101039

> <Tr_1_Tst_0>
1

> <Ready_Biodeg>
1.0

$$$$
Row1010
  Mrv171c012251911052D          

 11 11  0  0  0  0            999 V2000
    1.1645    0.0375    0.0000 N   0  0  0  0  0  0  0  0  0  0  0  0
    0.4500    0.4500    0.0000 C   0  0  0  0  0  0  0  0  0  0  0  0
    0.4500    1.2750    0.0000 C   0  0  0  0  0  0  0  0  0  0  0  0
    1.1645    1.6875    0.0000 C   0  0  0  0  0  0  0  0  0  0  0  0
   -0.2645    1.6875    0.0000 C   0  0  0  0  0  0  0  0  0  0  0  0
   -0.2645    0.0375    0.0000 N   0  0  0  0  0  0  0  0  0  0  0  0
   -0.2645   -0.7875    0.0000 C   0  0  0  0  0  0  0  0  0  0  0  0
   -0.9789   -1.2000    0.0000 O   0  0  0  0  0  0  0  0  0  0  0  0
    0.4500   -1.2000    0.0000 C   0  0  0  0  0  0  0  0  0  0  0  0
    1.1645   -0.7875    0.0000 C   0  0  0  0  0  0  0  0  0  0  0  0
    1.8790   -1.2000    0.0000 C   0  0  0  0  0  0  0  0  0  0  0  0
  2  1  1  0  0  0  0
  2  3  1  0  0  0  0
  3  4  1  0  0  0  0
  3  5  1  0  0  0  0
  6  2  2  0  0  0  0
  7  6  1  0  0  0  0
  7  8  2  0  0  0  0
  9  7  1  0  0  0  0
 10  9  1  0  0  0  0
  1 10  2  0  0  0  0
 10 11  1  0  0  0  0
M  END
> <ChemID>
101051

> <CAS>
2814-20-2

> <Original_SMILES>
CC1=CC(=O)N=C(N1)C(C)C

> <preferred_name>
2-Isopropyl-6-methyl-4-pyrimidone

> <dsstox_substance_id>
DTXSID1027502

> <dsstox_compound_id>
DTXCID507502

> <qc_level>
DSSTox_Low

> <Canonical_QSARr>
CC1CC(=O)N=C(N=1)C(C)C

> <InChI_Code_QSARr>
InChI=1S/C8H12N2O/c1-5(2)8-9-6(3)4-7(11)10-8/h5H,4H2,1-3H3

> <InChI Key_QSARr>
JSAKSKHTLVSNQJ-UHFFFAOYSA-N

> <Salt_Solvent>


> <Salt_Solvent_ID>
0

> <MPID>
101040

> <Tr_1_Tst_0>
1

> <Ready_Biodeg>
0.0

$$$$
Row1011
  Mrv171c012251911052D          

 19 18  0  0  0  0            999 V2000
   15.6156    5.7157    0.0000 C   0  0  0  0  0  0  0  0  0  0  0  0
   14.9011    6.1282    0.0000 C   0  0  0  0  0  0  0  0  0  0  0  0
   14.1866    5.7157    0.0000 C   0  0  0  0  0  0  0  0  0  0  0  0
   13.4722    6.1282    0.0000 C   0  0  0  0  0  0  0  0  0  0  0  0
   12.7577    5.7157    0.0000 C   0  0  0  0  0  0  0  0  0  0  0  0
   12.0432    6.1282    0.0000 C   0  0  0  0  0  0  0  0  0  0  0  0
   11.3288    5.7157    0.0000 C   0  0  0  0  0  0  0  0  0  0  0  0
   10.6143    6.1282    0.0000 C   0  0  0  0  0  0  0  0  0  0  0  0
    9.8998    5.7157    0.0000 C   0  0  0  0  0  0  0  0  0  0  0  0
    9.1853    6.1282    0.0000 S   0  0  0  0  0  0  0  0  0  0  0  0
   16.3301    6.1282    0.0000 C   0  0  0  0  0  0  0  0  0  0  0  0
   17.0445    5.7157    0.0000 C   0  0  0  0  0  0  0  0  0  0  0  0
   17.7590    6.1282    0.0000 C   0  0  0  0  0  0  0  0  0  0  0  0
   18.4735    5.7157    0.0000 C   0  0  0  0  0  0  0  0  0  0  0  0
   19.1879    6.1282    0.0000 C   0  0  0  0  0  0  0  0  0  0  0  0
   19.9024    5.7157    0.0000 C   0  0  0  0  0  0  0  0  0  0  0  0
   20.6169    6.1282    0.0000 C   0  0  0  0  0  0  0  0  0  0  0  0
   21.3314    5.7157    0.0000 C   0  0  0  0  0  0  0  0  0  0  0  0
   22.0458    6.1282    0.0000 C   0  0  0  0  0  0  0  0  0  0  0  0
  1  2  1  0  0  0  0
  2  3  1  0  0  0  0
  3  4  1  0  0  0  0
  4  5  1  0  0  0  0
  5  6  1  0  0  0  0
  6  7  1  0  0  0  0
  7  8  1  0  0  0  0
  8  9  1  0  0  0  0
  9 10  1  0  0  0  0
  1 11  1  0  0  0  0
 11 12  1  0  0  0  0
 12 13  1  0  0  0  0
 13 14  1  0  0  0  0
 14 15  1  0  0  0  0
 15 16  1  0  0  0  0
 16 17  1  0  0  0  0
 17 18  1  0  0  0  0
 18 19  1  0  0  0  0
M  END
> <ChemID>
101052

> <CAS>
2885-00-9

> <Original_SMILES>
CCCCCCCCCCCCCCCCCCS

> <preferred_name>
1-Octadecanethiol

> <dsstox_substance_id>
DTXSID0062686

> <dsstox_compound_id>
DTXCID8037887

> <qc_level>
Public_High

> <Canonical_QSARr>
CCCCCCCCCCCCCCCCCCS

> <InChI_Code_QSARr>
InChI=1S/C18H38S/c1-2-3-4-5-6-7-8-9-10-11-12-13-14-15-16-17-18-19/h19H,2-18H2,1H3

> <InChI Key_QSARr>
QJAOYSPHSNGHNC-UHFFFAOYSA-N

> <Salt_Solvent>


> <Salt_Solvent_ID>
0

> <MPID>
101041

> <Tr_1_Tst_0>
1

> <Ready_Biodeg>
0.0

$$$$
Row1012
  Mrv171c012251911052D          

 18 18  0  0  0  0            999 V2000
    2.9781   -2.2291    0.0000 S   0  0  0  0  0  0  0  0  0  0  0  0
    3.3906   -1.5147    0.0000 P   0  0  0  0  0  0  0  0  0  0  0  0
    4.1050   -1.9272    0.0000 O   0  0  0  0  0  0  0  0  0  0  0  0
    4.8195   -1.5147    0.0000 C   0  0  0  0  0  0  0  0  0  0  0  0
    5.5340   -1.9272    0.0000 C   0  0  0  0  0  0  0  0  0  0  0  0
    3.8031   -0.8002    0.0000 O   0  0  0  0  0  0  0  0  0  0  0  0
    4.6281   -0.8002    0.0000 C   0  0  0  0  0  0  0  0  0  0  0  0
    5.0406   -0.0857    0.0000 C   0  0  0  0  0  0  0  0  0  0  0  0
    2.6761   -1.1022    0.0000 O   0  0  0  0  0  0  0  0  0  0  0  0
    1.9616   -1.5147    0.0000 C   0  0  0  0  0  0  0  0  0  0  0  0
    1.2471   -1.1022    0.0000 C   0  0  0  0  0  0  0  0  0  0  0  0
    1.2471   -0.2772    0.0000 Cl  0  0  0  0  0  0  0  0  0  0  0  0
    0.5327   -1.5147    0.0000 C   0  0  0  0  0  0  0  0  0  0  0  0
    0.5327   -2.3397    0.0000 C   0  0  0  0  0  0  0  0  0  0  0  0
   -0.1818   -2.7522    0.0000 Cl  0  0  0  0  0  0  0  0  0  0  0  0
    1.2471   -2.7522    0.0000 C   0  0  0  0  0  0  0  0  0  0  0  0
    1.2471   -3.5772    0.0000 Cl  0  0  0  0  0  0  0  0  0  0  0  0
    1.9616   -2.3397    0.0000 N   0  0  0  0  0  0  0  0  0  0  0  0
  1  2  2  0  0  0  0
  2  3  1  0  0  0  0
  3  4  1  0  0  0  0
  4  5  1  0  0  0  0
  2  6  1  0  0  0  0
  6  7  1  0  0  0  0
  7  8  1  0  0  0  0
  2  9  1  0  0  0  0
  9 10  1  0  0  0  0
 11 10  1  0  0  0  0
 11 12  1  0  0  0  0
 13 11  2  0  0  0  0
 14 13  1  0  0  0  0
 14 15  1  0  0  0  0
 16 14  2  0  0  0  0
 16 17  1  0  0  0  0
 18 16  1  0  0  0  0
 10 18  2  0  0  0  0
M  END
> <ChemID>
101053

> <CAS>
2921-88-2

> <Original_SMILES>
CCOP(=S)(Oc1[n]c(Cl)c(Cl)cc1Cl)OCC

> <preferred_name>
Chlorpyrifos

> <dsstox_substance_id>
DTXSID4020458

> <dsstox_compound_id>
DTXCID80458

> <qc_level>
DSSTox_Low

> <Canonical_QSARr>
CCOP(=S)(OC1=NC(Cl)=C(Cl)C=C1Cl)OCC

> <InChI_Code_QSARr>
InChI=1S/C9H11Cl3NO3PS/c1-3-14-17(18,15-4-2)16-9-7(11)5-6(10)8(12)13-9/h5H,3-4H2,1-2H3

> <InChI Key_QSARr>
SBPBAQFWLVIOKP-UHFFFAOYSA-N

> <Salt_Solvent>


> <Salt_Solvent_ID>
0

> <MPID>
101042

> <Tr_1_Tst_0>
0

> <Ready_Biodeg>
0.0

$$$$
Row1013
  Mrv171c012251911052D          

  7  6  0  0  0  0            999 V2000
    1.4201   -0.9460    0.0000 C   0  0  0  0  0  0  0  0  0  0  0  0
    1.4201   -1.7710    0.0000 O   0  0  0  0  0  0  0  0  0  0  0  0
    0.7056   -0.5335    0.0000 O   0  0  0  0  0  0  0  0  0  0  0  0
   -0.0089   -0.9460    0.0000 C   0  0  0  0  0  0  0  0  0  0  0  0
    2.1345   -0.5335    0.0000 C   0  0  0  0  0  0  0  0  0  0  0  0
    2.8490   -0.9460    0.0000 C   0  0  0  0  0  0  0  0  0  0  0  0
    3.5635   -0.5335    0.0000 S   0  0  0  0  0  0  0  0  0  0  0  0
  1  2  2  0  0  0  0
  1  3  1  0  0  0  0
  3  4  1  0  0  0  0
  1  5  1  0  0  0  0
  5  6  1  0  0  0  0
  6  7  1  0  0  0  0
M  END
> <ChemID>
101054

> <CAS>
2935-90-2

> <Original_SMILES>
COC(=O)CCS

> <preferred_name>
Methyl 3-sulfanylpropanoate

> <dsstox_substance_id>
DTXSID6027509

> <dsstox_compound_id>
DTXCID307509

> <qc_level>
DSSTox_Low

> <Canonical_QSARr>
COC(=O)CCS

> <InChI_Code_QSARr>
InChI=1S/C4H8O2S/c1-6-4(5)2-3-7/h7H,2-3H2,1H3

> <InChI Key_QSARr>
LDTLDBDUBGAEDT-UHFFFAOYSA-N

> <Salt_Solvent>


> <Salt_Solvent_ID>
0

> <MPID>
101043

> <Tr_1_Tst_0>
1

> <Ready_Biodeg>
1.0

$$$$
Row1014
  Mrv171c012251911052D          

 15 15  0  0  0  0            999 V2000
    3.5724    7.8375    0.0000 N   0  0  0  0  0  0  0  0  0  0  0  0
    2.8579    7.4250    0.0000 C   0  0  0  0  0  0  0  0  0  0  0  0
    2.8579    6.6000    0.0000 C   0  0  0  0  0  0  0  0  0  0  0  0
    3.5724    6.1875    0.0000 C   0  0  0  0  0  0  0  0  0  0  0  0
    3.5724    5.3625    0.0000 C   0  0  0  0  0  0  0  0  0  0  0  0
    2.8579    4.9500    0.0000 C   0  0  0  0  0  0  0  0  0  0  0  0
    2.8579    4.1250    0.0000 C   0  0  0  0  0  0  0  0  0  0  0  0
    2.1434    3.7125    0.0000 C   0  0  0  0  0  0  0  0  0  0  0  0
    2.1434    2.8875    0.0000 C   0  0  0  0  0  0  0  0  0  0  0  0
    4.2868    4.9500    0.0000 C   0  0  0  0  0  0  0  0  0  0  0  0
    4.2868    4.1250    0.0000 C   0  0  0  0  0  0  0  0  0  0  0  0
    5.0013    3.7125    0.0000 C   0  0  0  0  0  0  0  0  0  0  0  0
    5.0013    2.8875    0.0000 C   0  0  0  0  0  0  0  0  0  0  0  0
    4.2868    6.6000    0.0000 C   0  0  0  0  0  0  0  0  0  0  0  0
    4.2868    7.4250    0.0000 C   0  0  0  0  0  0  0  0  0  0  0  0
  2  1  1  0  0  0  0
  3  2  2  0  0  0  0
  4  3  1  0  0  0  0
  4  5  1  0  0  0  0
  5  6  1  0  0  0  0
  6  7  1  0  0  0  0
  7  8  1  0  0  0  0
  8  9  1  0  0  0  0
  5 10  1  0  0  0  0
 10 11  1  0  0  0  0
 11 12  1  0  0  0  0
 12 13  1  0  0  0  0
 14  4  2  0  0  0  0
 15 14  1  0  0  0  0
  1 15  2  0  0  0  0
M  END
> <ChemID>
101055

> <CAS>
2961-47-9

> <Original_SMILES>
CCCCC(CCCC)c1cc[n]cc1

> <preferred_name>
4-(1-Butylpentyl)pyridine

> <dsstox_substance_id>
DTXSID2062745

> <dsstox_compound_id>
DTXCID7038028

> <qc_level>
Public_High

> <Canonical_QSARr>
CCCCC(CCCC)C1C=CN=CC=1

> <InChI_Code_QSARr>
InChI=1S/C14H23N/c1-3-5-7-13(8-6-4-2)14-9-11-15-12-10-14/h9-13H,3-8H2,1-2H3

> <InChI Key_QSARr>
ATCGHKBXRIOBDX-UHFFFAOYSA-N

> <Salt_Solvent>


> <Salt_Solvent_ID>
0

> <MPID>
101044

> <Tr_1_Tst_0>
1

> <Ready_Biodeg>
1.0

$$$$
Row1015
  Mrv171c012251911052D          

 13 13  0  0  0  0            999 V2000
    2.2376   -2.4103    0.0000 C   0  0  0  0  0  0  0  0  0  0  0  0
    1.5231   -2.8228    0.0000 N   0  0  0  0  0  0  0  0  0  0  0  0
    2.2376   -1.5853    0.0000 C   0  0  0  0  0  0  0  0  0  0  0  0
    2.9521   -1.1728    0.0000 C   0  0  0  0  0  0  0  0  0  0  0  0
    2.9521   -0.3478    0.0000 C   0  0  0  0  0  0  0  0  0  0  0  0
    2.2376    0.0647    0.0000 C   0  0  0  0  0  0  0  0  0  0  0  0
    2.2376    0.8897    0.0000 N   0  3  0  0  0  0  0  0  0  0  0  0
    1.5231    1.3022    0.0000 O   0  0  0  0  0  0  0  0  0  0  0  0
    2.9521    1.3022    0.0000 O   0  5  0  0  0  0  0  0  0  0  0  0
    1.5231   -0.3478    0.0000 C   0  0  0  0  0  0  0  0  0  0  0  0
    1.5231   -1.1728    0.0000 C   0  0  0  0  0  0  0  0  0  0  0  0
    0.8087   -1.5853    0.0000 Cl  0  0  0  0  0  0  0  0  0  0  0  0
    2.9521   -2.8228    0.0000 O   0  0  0  0  0  0  0  0  0  0  0  0
  1  2  1  0  0  0  0
  1  3  1  0  0  0  0
  4  3  1  0  0  0  0
  5  4  2  0  0  0  0
  6  5  1  0  0  0  0
  6  7  1  0  0  0  0
  7  8  2  0  0  0  0
  7  9  1  0  0  0  0
 10  6  2  0  0  0  0
 11 10  1  0  0  0  0
  3 11  2  0  0  0  0
 11 12  1  0  0  0  0
  1 13  2  0  0  0  0
M  CHG  2   7   1   9  -1
M  END
> <ChemID>
101056

> <CAS>
3011-89-0

> <Original_SMILES>
NC(=O)c1ccc(cc1Cl)[N+]([O-])=O

> <preferred_name>
2-Chloro-4-nitrobenzamide

> <dsstox_substance_id>
DTXSID3041405

> <dsstox_compound_id>
DTXCID1021405

> <qc_level>
DSSTox_Low

> <Canonical_QSARr>
NC(=O)C1C=CC(=CC=1Cl)[N+]([O-])=O

> <InChI_Code_QSARr>
InChI=1S/C7H5ClN2O3/c8-6-3-4(10(12)13)1-2-5(6)7(9)11/h1-3H,(H2,9,11)

> <InChI Key_QSARr>
GFGSZUNNBQXGMK-UHFFFAOYSA-N

> <Salt_Solvent>


> <Salt_Solvent_ID>
0

> <MPID>
101045

> <Tr_1_Tst_0>
1

> <Ready_Biodeg>
1.0

$$$$
Row1016
  Mrv171c012251911052D          

 16 15  0  0  0  0            999 V2000
    6.6592    2.3299    0.0000 O   0  0  0  0  0  0  0  0  0  0  0  0
    6.8574    1.5291    0.0000 C   0  0  0  0  0  0  0  0  0  0  0  0
    6.2629    0.9570    0.0000 C   0  0  0  0  0  0  0  0  0  0  0  0
    5.4703    1.1858    0.0000 C   0  0  0  0  0  0  0  0  0  0  0  0
    4.8758    0.6138    0.0000 C   0  0  0  0  0  0  0  0  0  0  0  0
    4.0832    0.8426    0.0000 C   0  0  0  0  0  0  0  0  0  0  0  0
    3.4887    0.2706    0.0000 C   0  0  0  0  0  0  0  0  0  0  0  0
    2.6961    0.4994    0.0000 C   0  0  0  0  0  0  0  0  0  0  0  0
    2.1016   -0.0726    0.0000 C   0  0  0  0  0  0  0  0  0  0  0  0
    7.6500    1.3003    0.0000 N   0  0  0  0  0  0  0  0  0  0  0  0
    8.2445    1.8723    0.0000 C   0  0  0  0  0  0  0  0  0  0  0  0
    9.0372    1.6435    0.0000 C   0  0  0  0  0  0  0  0  0  0  0  0
    9.6316    2.2155    0.0000 O   0  0  0  0  0  0  0  0  0  0  0  0
    7.8482    0.4994    0.0000 C   0  0  0  0  0  0  0  0  0  0  0  0
    8.6408    0.2706    0.0000 C   0  0  0  0  0  0  0  0  0  0  0  0
    8.8390   -0.5303    0.0000 O   0  0  0  0  0  0  0  0  0  0  0  0
  1  2  2  0  0  0  0
  2  3  1  0  0  0  0
  3  4  1  0  0  0  0
  4  5  1  0  0  0  0
  5  6  1  0  0  0  0
  6  7  1  0  0  0  0
  7  8  1  0  0  0  0
  8  9  1  0  0  0  0
  2 10  1  0  0  0  0
 10 11  1  0  0  0  0
 11 12  1  0  0  0  0
 12 13  1  0  0  0  0
 10 14  1  0  0  0  0
 14 15  1  0  0  0  0
 15 16  1  0  0  0  0
M  END
> <ChemID>
101057

> <CAS>
3077-30-3

> <Original_SMILES>
CCCCCCCC(=O)N(CCO)CCO

> <preferred_name>
Octanamide, N,N-bis(2-hydroxyethyl)-

> <dsstox_substance_id>
DTXSID6062832

> <dsstox_compound_id>
DTXCID0038257

> <qc_level>
Public_High

> <Canonical_QSARr>
CCCCCCCC(=O)N(CCO)CCO

> <InChI_Code_QSARr>
InChI=1S/C12H25NO3/c1-2-3-4-5-6-7-12(16)13(8-10-14)9-11-15/h14-15H,2-11H2,1H3

> <InChI Key_QSARr>
FZQAYFWUOCXLKJ-UHFFFAOYSA-N

> <Salt_Solvent>


> <Salt_Solvent_ID>
0

> <MPID>
101046

> <Tr_1_Tst_0>
0

> <Ready_Biodeg>
1.0

$$$$
Row1017
  Mrv171c012251911052D          

 17 16  0  0  0  0            999 V2000
    5.6627    5.9034    0.0000 O   0  0  0  0  0  0  0  0  0  0  0  0
    5.8186    5.0933    0.0000 C   0  0  0  0  0  0  0  0  0  0  0  0
    5.1949    4.5532    0.0000 C   0  0  0  0  0  0  0  0  0  0  0  0
    4.4154    4.8233    0.0000 C   0  0  0  0  0  0  0  0  0  0  0  0
    3.7918    4.2832    0.0000 C   0  0  0  0  0  0  0  0  0  0  0  0
    3.0122    4.5532    0.0000 C   0  0  0  0  0  0  0  0  0  0  0  0
    2.3886    4.0131    0.0000 C   0  0  0  0  0  0  0  0  0  0  0  0
    1.6090    4.2832    0.0000 C   0  0  0  0  0  0  0  0  0  0  0  0
    0.9854    3.7431    0.0000 C   0  0  0  0  0  0  0  0  0  0  0  0
    0.2058    4.0131    0.0000 C   0  0  0  0  0  0  0  0  0  0  0  0
    6.5981    4.8233    0.0000 N   0  0  0  0  0  0  0  0  0  0  0  0
    7.2218    5.3634    0.0000 C   0  0  0  0  0  0  0  0  0  0  0  0
    8.0013    5.0933    0.0000 C   0  0  0  0  0  0  0  0  0  0  0  0
    8.6250    5.6334    0.0000 O   0  0  0  0  0  0  0  0  0  0  0  0
    6.7540    4.0131    0.0000 C   0  0  0  0  0  0  0  0  0  0  0  0
    7.5336    3.7431    0.0000 C   0  0  0  0  0  0  0  0  0  0  0  0
    7.6895    2.9330    0.0000 O   0  0  0  0  0  0  0  0  0  0  0  0
  1  2  2  0  0  0  0
  2  3  1  0  0  0  0
  3  4  1  0  0  0  0
  4  5  1  0  0  0  0
  5  6  1  0  0  0  0
  6  7  1  0  0  0  0
  7  8  1  0  0  0  0
  8  9  1  0  0  0  0
  9 10  1  0  0  0  0
  2 11  1  0  0  0  0
 11 12  1  0  0  0  0
 12 13  1  0  0  0  0
 13 14  1  0  0  0  0
 11 15  1  0  0  0  0
 15 16  1  0  0  0  0
 16 17  1  0  0  0  0
M  END
> <ChemID>
101058

> <CAS>
3077-37-0

> <Original_SMILES>
CCCCCCCCC(=O)N(CCO)CCO

> <preferred_name>
Nonanamide, N,N-bis(2-hydroxyethyl)-

> <dsstox_substance_id>
DTXSID1062833

> <dsstox_compound_id>
DTXCID5038258

> <qc_level>
Public_High

> <Canonical_QSARr>
CCCCCCCCC(=O)N(CCO)CCO

> <InChI_Code_QSARr>
InChI=1S/C13H27NO3/c1-2-3-4-5-6-7-8-13(17)14(9-11-15)10-12-16/h15-16H,2-12H2,1H3

> <InChI Key_QSARr>
WODYOUWSWYOPBP-UHFFFAOYSA-N

> <Salt_Solvent>


> <Salt_Solvent_ID>
0

> <MPID>
101047

> <Tr_1_Tst_0>
1

> <Ready_Biodeg>
1.0

$$$$
Row1018
  Mrv171c012251911052D          

 18 18  0  0  0  0            999 V2000
    2.9847   -0.3178    0.0000 C   0  0  0  0  0  0  0  0  0  0  0  0
    2.9847    0.5072    0.0000 Br  0  0  0  0  0  0  0  0  0  0  0  0
    2.2703   -0.7303    0.0000 C   0  0  0  0  0  0  0  0  0  0  0  0
    2.2703   -1.5553    0.0000 Br  0  0  0  0  0  0  0  0  0  0  0  0
    1.5558   -0.3178    0.0000 C   0  0  0  0  0  0  0  0  0  0  0  0
    0.8413   -0.7303    0.0000 C   0  0  0  0  0  0  0  0  0  0  0  0
    0.8413   -1.5553    0.0000 C   0  0  0  0  0  0  0  0  0  0  0  0
    0.1269   -1.9678    0.0000 Br  0  0  0  0  0  0  0  0  0  0  0  0
    1.5558   -1.9678    0.0000 C   0  0  0  0  0  0  0  0  0  0  0  0
    0.8413   -2.3803    0.0000 Br  0  0  0  0  0  0  0  0  0  0  0  0
    1.5558   -2.7928    0.0000 C   0  0  0  0  0  0  0  0  0  0  0  0
    2.2703   -3.2053    0.0000 C   0  0  0  0  0  0  0  0  0  0  0  0
    2.9847   -2.7928    0.0000 C   0  0  0  0  0  0  0  0  0  0  0  0
    3.6992   -3.2053    0.0000 Br  0  0  0  0  0  0  0  0  0  0  0  0
    2.9847   -1.9678    0.0000 C   0  0  0  0  0  0  0  0  0  0  0  0
    2.1643   -2.0540    0.0000 Br  0  0  0  0  0  0  0  0  0  0  0  0
    3.6992   -1.5553    0.0000 C   0  0  0  0  0  0  0  0  0  0  0  0
    3.6992   -0.7303    0.0000 C   0  0  0  0  0  0  0  0  0  0  0  0
  1  2  1  0  0  0  0
  3  1  1  0  0  0  0
  3  4  1  0  0  0  0
  5  3  1  0  0  0  0
  6  5  1  0  0  0  0
  7  6  1  0  0  0  0
  7  8  1  0  0  0  0
  9  7  1  0  0  0  0
  9 10  1  0  0  0  0
 11  9  1  0  0  0  0
 12 11  1  0  0  0  0
 13 12  1  0  0  0  0
 13 14  1  0  0  0  0
 15 13  1  0  0  0  0
 15 16  1  0  0  0  0
 17 15  1  0  0  0  0
 18 17  1  0  0  0  0
  1 18  1  0  0  0  0
M  END
> <ChemID>
101060

> <CAS>
3194-55-6

> <Original_SMILES>
BrC1CCC(Br)C(Br)CCC(Br)C(Br)CCC1Br

> <preferred_name>
1,2,5,6,9,10-Hexabromocyclododecane

> <dsstox_substance_id>
DTXSID4027527

> <dsstox_compound_id>
DTXCID107527

> <qc_level>
DSSTox_Low

> <Canonical_QSARr>
BrC1CCC(Br)C(Br)CCC(Br)C(Br)CCC1Br

> <InChI_Code_QSARr>
InChI=1S/C12H18Br6/c13-7-1-2-8(14)10(16)5-6-12(18)11(17)4-3-9(7)15/h7-12H,1-6H2

> <InChI Key_QSARr>
DEIGXXQKDWULML-UHFFFAOYSA-N

> <Salt_Solvent>


> <Salt_Solvent_ID>
0

> <MPID>
101048

> <Tr_1_Tst_0>
1

> <Ready_Biodeg>
0.0

$$$$
Row1019
  Mrv171c012251911052D          

  9  8  0  0  0  0            999 V2000
    2.6664    0.7145    0.0000 Br  0  0  0  0  0  0  0  0  0  0  0  0
    1.9520    0.3020    0.0000 C   0  0  0  0  0  0  0  0  0  0  0  0
    1.2375    0.7145    0.0000 C   0  0  0  0  0  0  0  0  0  0  0  0
    0.5230    1.1270    0.0000 C   0  0  0  0  0  0  0  0  0  0  0  0
   -0.1915    0.7145    0.0000 Br  0  0  0  0  0  0  0  0  0  0  0  0
    1.6500    1.4289    0.0000 C   0  0  0  0  0  0  0  0  0  0  0  0
    1.2375    2.1434    0.0000 Br  0  0  0  0  0  0  0  0  0  0  0  0
    0.8250   -0.0000    0.0000 C   0  0  0  0  0  0  0  0  0  0  0  0
   -0.0000   -0.0000    0.0000 Br  0  0  0  0  0  0  0  0  0  0  0  0
  1  2  1  0  0  0  0
  2  3  1  0  0  0  0
  3  4  1  0  0  0  0
  4  5  1  0  0  0  0
  3  6  1  0  0  0  0
  6  7  1  0  0  0  0
  3  8  1  0  0  0  0
  8  9  1  0  0  0  0
M  END
> <ChemID>
101061

> <CAS>
3229-00-3

> <Original_SMILES>
BrCC(CBr)(CBr)CBr

> <preferred_name>
Propane, 1,3-dibromo-2,2-bis(bromomethyl)-

> <dsstox_substance_id>
DTXSID1062916

> <dsstox_compound_id>
DTXCID9038478

> <qc_level>
Public_High

> <Canonical_QSARr>
BrCC(CBr)(CBr)CBr

> <InChI_Code_QSARr>
InChI=1S/C5H8Br4/c6-1-5(2-7,3-8)4-9/h1-4H2

> <InChI Key_QSARr>
OYSVBCSOQFXYHK-UHFFFAOYSA-N

> <Salt_Solvent>


> <Salt_Solvent_ID>
0

> <MPID>
101049

> <Tr_1_Tst_0>
1

> <Ready_Biodeg>
0.0

$$$$
Row1020
  Mrv171c012251911052D          

 24 23  0  0  0  0            999 V2000
    2.3445   -3.2703    0.0000 C   0  0  0  0  0  0  0  0  0  0  0  0
    1.9320   -3.9848    0.0000 C   0  0  0  0  0  0  0  0  0  0  0  0
    1.1070   -3.9848    0.0000 O   0  0  0  0  0  0  0  0  0  0  0  0
    0.6945   -4.6992    0.0000 C   0  0  0  0  0  0  0  0  0  0  0  0
    1.1070   -5.4137    0.0000 O   0  0  0  0  0  0  0  0  0  0  0  0
   -0.1305   -4.6992    0.0000 C   0  0  0  0  0  0  0  0  0  0  0  0
   -0.5430   -5.4137    0.0000 C   0  0  0  0  0  0  0  0  0  0  0  0
   -0.5430   -3.9848    0.0000 C   0  0  0  0  0  0  0  0  0  0  0  0
    2.7570   -2.5558    0.0000 C   0  0  0  0  0  0  0  0  0  0  0  0
    3.5820   -2.5558    0.0000 O   0  0  0  0  0  0  0  0  0  0  0  0
    3.9945   -1.8413    0.0000 C   0  0  0  0  0  0  0  0  0  0  0  0
    4.8195   -1.8413    0.0000 O   0  0  0  0  0  0  0  0  0  0  0  0
    3.5820   -1.1269    0.0000 C   0  0  0  0  0  0  0  0  0  0  0  0
    3.9945   -0.4124    0.0000 C   0  0  0  0  0  0  0  0  0  0  0  0
    2.7570   -1.1269    0.0000 C   0  0  0  0  0  0  0  0  0  0  0  0
    3.0590   -3.6828    0.0000 C   0  0  0  0  0  0  0  0  0  0  0  0
    3.7735   -3.2703    0.0000 O   0  0  0  0  0  0  0  0  0  0  0  0
    4.4879   -3.6828    0.0000 C   0  0  0  0  0  0  0  0  0  0  0  0
    4.4879   -4.5078    0.0000 O   0  0  0  0  0  0  0  0  0  0  0  0
    5.2024   -3.2703    0.0000 C   0  0  0  0  0  0  0  0  0  0  0  0
    5.2024   -2.4453    0.0000 C   0  0  0  0  0  0  0  0  0  0  0  0
    5.9169   -3.6828    0.0000 C   0  0  0  0  0  0  0  0  0  0  0  0
    1.6301   -2.8578    0.0000 C   0  0  0  0  0  0  0  0  0  0  0  0
    1.6301   -2.0328    0.0000 C   0  0  0  0  0  0  0  0  0  0  0  0
  1  2  1  0  0  0  0
  2  3  1  0  0  0  0
  3  4  1  0  0  0  0
  4  5  2  0  0  0  0
  4  6  1  0  0  0  0
  6  7  1  0  0  0  0
  6  8  2  0  0  0  0
  1  9  1  0  0  0  0
  9 10  1  0  0  0  0
 10 11  1  0  0  0  0
 11 12  2  0  0  0  0
 11 13  1  0  0  0  0
 13 14  1  0  0  0  0
 13 15  2  0  0  0  0
  1 16  1  0  0  0  0
 16 17  1  0  0  0  0
 17 18  1  0  0  0  0
 18 19  2  0  0  0  0
 18 20  1  0  0  0  0
 20 21  1  0  0  0  0
 20 22  2  0  0  0  0
  1 23  1  0  0  0  0
 23 24  1  0  0  0  0
M  END
> <ChemID>
101062

> <CAS>
3290-92-4

> <Original_SMILES>
CCC(COC(=O)C(C)=C)(COC(=O)C(C)=C)COC(=O)C(C)=C

> <preferred_name>
Trimethylolpropane trimethacrylate

> <dsstox_substance_id>
DTXSID3027530

> <dsstox_compound_id>
DTXCID607530

> <qc_level>
DSSTox_Low

> <Canonical_QSARr>
CCC(COC(=O)C(C)=C)(COC(=O)C(C)=C)COC(=O)C(C)=C

> <InChI_Code_QSARr>
InChI=1S/C18H26O6/c1-8-18(9-22-15(19)12(2)3,10-23-16(20)13(4)5)11-24-17(21)14(6)7/h2,4,6,8-11H2,1,3,5,7H3

> <InChI Key_QSARr>
OKKRPWIIYQTPQF-UHFFFAOYSA-N

> <Salt_Solvent>


> <Salt_Solvent_ID>
0

> <MPID>
101050

> <Tr_1_Tst_0>
0

> <Ready_Biodeg>
1.0

$$$$
Row1021
  Mrv171c012251911052D          

  9  8  0  0  0  0            999 V2000
    2.8051   -1.4772    0.0000 O   0  0  0  0  0  0  0  0  0  0  0  0
    2.0907   -1.8897    0.0000 C   0  0  0  0  0  0  0  0  0  0  0  0
    1.3762   -1.4772    0.0000 C   0  0  0  0  0  0  0  0  0  0  0  0
    0.6617   -1.0647    0.0000 C   0  0  0  0  0  0  0  0  0  0  0  0
   -0.0527   -1.4772    0.0000 Br  0  0  0  0  0  0  0  0  0  0  0  0
    1.7887   -0.7627    0.0000 C   0  0  0  0  0  0  0  0  0  0  0  0
    1.3762   -0.0482    0.0000 Br  0  0  0  0  0  0  0  0  0  0  0  0
    0.9637   -2.1917    0.0000 C   0  0  0  0  0  0  0  0  0  0  0  0
    0.1387   -2.1917    0.0000 O   0  0  0  0  0  0  0  0  0  0  0  0
  1  2  1  0  0  0  0
  2  3  1  0  0  0  0
  3  4  1  0  0  0  0
  4  5  1  0  0  0  0
  3  6  1  0  0  0  0
  6  7  1  0  0  0  0
  3  8  1  0  0  0  0
  8  9  1  0  0  0  0
M  END
> <ChemID>
101063

> <CAS>
3296-90-0

> <Original_SMILES>
OCC(CBr)(CBr)CO

> <preferred_name>
2,2-Bis(bromomethyl)-1,3-propanediol

> <dsstox_substance_id>
DTXSID9020164

> <dsstox_compound_id>
DTXCID50164

> <qc_level>
DSSTox_Low

> <Canonical_QSARr>
OCC(CBr)(CBr)CO

> <InChI_Code_QSARr>
InChI=1S/C5H10Br2O2/c6-1-5(2-7,3-8)4-9/h8-9H,1-4H2

> <InChI Key_QSARr>
CHUGKEQJSLOLHL-UHFFFAOYSA-N

> <Salt_Solvent>


> <Salt_Solvent_ID>
0

> <MPID>
101051

> <Tr_1_Tst_0>
1

> <Ready_Biodeg>
0.0

$$$$
Row1022
  Mrv171c012251911052D          

 39 39  0  0  0  0            999 V2000
    5.5499   -6.3155    0.0000 O   0  0  0  0  0  0  0  0  0  0  0  0
    5.5499   -5.4905    0.0000 C   0  0  0  0  0  0  0  0  0  0  0  0
    4.8355   -5.0780    0.0000 C   0  0  0  0  0  0  0  0  0  0  0  0
    4.8355   -4.2530    0.0000 C   0  0  0  0  0  0  0  0  0  0  0  0
    4.1210   -3.8405    0.0000 C   0  0  0  0  0  0  0  0  0  0  0  0
    4.1210   -3.0155    0.0000 C   0  0  0  0  0  0  0  0  0  0  0  0
    4.8355   -2.6030    0.0000 O   0  0  0  0  0  0  0  0  0  0  0  0
    4.8355   -1.7780    0.0000 C   0  0  0  0  0  0  0  0  0  0  0  0
    5.5499   -1.3655    0.0000 C   0  0  0  0  0  0  0  0  0  0  0  0
    6.2644   -1.7780    0.0000 C   0  0  0  0  0  0  0  0  0  0  0  0
    6.9789   -1.3655    0.0000 C   0  0  0  0  0  0  0  0  0  0  0  0
    5.5499   -0.5405    0.0000 C   0  0  0  0  0  0  0  0  0  0  0  0
    6.2644   -0.1280    0.0000 C   0  0  0  0  0  0  0  0  0  0  0  0
    6.2644    0.6970    0.0000 C   0  0  0  0  0  0  0  0  0  0  0  0
    6.9789    1.1095    0.0000 C   0  0  0  0  0  0  0  0  0  0  0  0
    3.4065   -2.6030    0.0000 O   0  0  0  0  0  0  0  0  0  0  0  0
    3.4065   -4.2530    0.0000 C   0  0  0  0  0  0  0  0  0  0  0  0
    2.6921   -3.8405    0.0000 C   0  0  0  0  0  0  0  0  0  0  0  0
    1.9776   -4.2530    0.0000 O   0  0  0  0  0  0  0  0  0  0  0  0
    1.2631   -3.8405    0.0000 C   0  0  0  0  0  0  0  0  0  0  0  0
    0.5486   -4.2530    0.0000 C   0  0  0  0  0  0  0  0  0  0  0  0
    0.5486   -5.0780    0.0000 C   0  0  0  0  0  0  0  0  0  0  0  0
   -0.1658   -5.4905    0.0000 C   0  0  0  0  0  0  0  0  0  0  0  0
   -0.1658   -3.8405    0.0000 C   0  0  0  0  0  0  0  0  0  0  0  0
   -0.8803   -4.2530    0.0000 C   0  0  0  0  0  0  0  0  0  0  0  0
   -1.5948   -3.8405    0.0000 C   0  0  0  0  0  0  0  0  0  0  0  0
   -2.3092   -4.2530    0.0000 C   0  0  0  0  0  0  0  0  0  0  0  0
    2.6921   -3.0155    0.0000 O   0  0  0  0  0  0  0  0  0  0  0  0
    3.4065   -5.0780    0.0000 C   0  0  0  0  0  0  0  0  0  0  0  0
    4.1210   -5.4905    0.0000 C   0  0  0  0  0  0  0  0  0  0  0  0
    6.2644   -5.0780    0.0000 O   0  0  0  0  0  0  0  0  0  0  0  0
    6.9789   -5.4905    0.0000 C   0  0  0  0  0  0  0  0  0  0  0  0
    7.6933   -5.0780    0.0000 C   0  0  0  0  0  0  0  0  0  0  0  0
    7.6933   -4.2530    0.0000 C   0  0  0  0  0  0  0  0  0  0  0  0
    8.4078   -3.8405    0.0000 C   0  0  0  0  0  0  0  0  0  0  0  0
    8.4078   -5.4905    0.0000 C   0  0  0  0  0  0  0  0  0  0  0  0
    9.1223   -5.0780    0.0000 C   0  0  0  0  0  0  0  0  0  0  0  0
    9.8368   -5.4905    0.0000 C   0  0  0  0  0  0  0  0  0  0  0  0
   10.5512   -5.0780    0.0000 C   0  0  0  0  0  0  0  0  0  0  0  0
  1  2  2  0  0  0  0
  2  3  1  0  0  0  0
  4  3  1  0  0  0  0
  5  4  2  0  0  0  0
  5  6  1  0  0  0  0
  6  7  1  0  0  0  0
  7  8  1  0  0  0  0
  8  9  1  0  0  0  0
  9 10  1  0  0  0  0
 10 11  1  0  0  0  0
  9 12  1  0  0  0  0
 12 13  1  0  0  0  0
 13 14  1  0  0  0  0
 14 15  1  0  0  0  0
  6 16  2  0  0  0  0
 17  5  1  0  0  0  0
 17 18  1  0  0  0  0
 18 19  1  0  0  0  0
 19 20  1  0  0  0  0
 20 21  1  0  0  0  0
 21 22  1  0  0  0  0
 22 23  1  0  0  0  0
 21 24  1  0  0  0  0
 24 25  1  0  0  0  0
 25 26  1  0  0  0  0
 26 27  1  0  0  0  0
 18 28  2  0  0  0  0
 29 17  2  0  0  0  0
 30 29  1  0  0  0  0
  3 30  2  0  0  0  0
  2 31  1  0  0  0  0
 31 32  1  0  0  0  0
 32 33  1  0  0  0  0
 33 34  1  0  0  0  0
 34 35  1  0  0  0  0
 33 36  1  0  0  0  0
 36 37  1  0  0  0  0
 37 38  1  0  0  0  0
 38 39  1  0  0  0  0
M  END
> <ChemID>
101064

> <CAS>
3319-31-1

> <Original_SMILES>
CCCCC(COC(=O)c1ccc(cc1C(=O)OCC(CCCC)CC)C(=O)OCC(CCCC)CC)CC

> <preferred_name>
Tris(2-ethylhexyl) trimellitate

> <dsstox_substance_id>
DTXSID9026265

> <dsstox_compound_id>
DTXCID806265

> <qc_level>
DSSTox_Low

> <Canonical_QSARr>
CCCCC(COC(=O)C1=CC=C(C=C1C(=O)OCC(CCCC)CC)C(=O)OCC(CCCC)CC)CC

> <InChI_Code_QSARr>
InChI=1S/C33H54O6/c1-7-13-16-25(10-4)22-37-31(34)28-19-20-29(32(35)38-23-26(11-5)17-14-8-2)30(21-28)33(36)39-24-27(12-6)18-15-9-3/h19-21,25-27H,7-18,22-24H2,1-6H3

> <InChI Key_QSARr>
KRADHMIOFJQKEZ-UHFFFAOYSA-N

> <Salt_Solvent>


> <Salt_Solvent_ID>
0

> <MPID>
101052

> <Tr_1_Tst_0>
1

> <Ready_Biodeg>
0.0

$$$$
Row1023
  Mrv171c012251911052D          

 17 18  0  0  0  0            999 V2000
    2.9666   -4.7786    0.0000 C   0  0  0  0  0  0  0  0  0  0  0  0
    2.9666   -3.9536    0.0000 C   0  0  0  0  0  0  0  0  0  0  0  0
    2.2521   -3.5411    0.0000 O   0  0  0  0  0  0  0  0  0  0  0  0
    3.6811   -3.5411    0.0000 N   0  0  0  0  0  0  0  0  0  0  0  0
    3.6811   -2.7161    0.0000 C   0  0  0  0  0  0  0  0  0  0  0  0
    4.3955   -2.3036    0.0000 C   0  0  0  0  0  0  0  0  0  0  0  0
    4.3955   -1.4786    0.0000 C   0  0  0  0  0  0  0  0  0  0  0  0
    3.6811   -1.0661    0.0000 C   0  0  0  0  0  0  0  0  0  0  0  0
    3.6811   -0.2411    0.0000 C   0  0  0  0  0  0  0  0  0  0  0  0
    4.3955    0.1714    0.0000 C   0  0  0  0  0  0  0  0  0  0  0  0
    4.3955    0.9964    0.0000 C   0  0  0  0  0  0  0  0  0  0  0  0
    3.6811    1.4089    0.0000 C   0  0  0  0  0  0  0  0  0  0  0  0
    3.6811    2.2339    0.0000 N   0  0  0  0  0  0  0  0  0  0  0  0
    2.9666    0.9964    0.0000 C   0  0  0  0  0  0  0  0  0  0  0  0
    2.9666    0.1714    0.0000 C   0  0  0  0  0  0  0  0  0  0  0  0
    2.9666   -1.4786    0.0000 C   0  0  0  0  0  0  0  0  0  0  0  0
    2.9666   -2.3036    0.0000 C   0  0  0  0  0  0  0  0  0  0  0  0
  1  2  1  0  0  0  0
  2  3  2  0  0  0  0
  2  4  1  0  0  0  0
  4  5  1  0  0  0  0
  6  5  1  0  0  0  0
  7  6  2  0  0  0  0
  8  7  1  0  0  0  0
  8  9  1  0  0  0  0
 10  9  1  0  0  0  0
 11 10  2  0  0  0  0
 12 11  1  0  0  0  0
 12 13  1  0  0  0  0
 14 12  2  0  0  0  0
 15 14  1  0  0  0  0
  9 15  2  0  0  0  0
 16  8  2  0  0  0  0
 17 16  1  0  0  0  0
  5 17  2  0  0  0  0
M  END
> <ChemID>
101065

> <CAS>
3366-61-8

> <Original_SMILES>
CC(=O)Nc1ccc(cc1)-c1ccc(N)cc1

> <preferred_name>
N-Acetylbenzidine

> <dsstox_substance_id>
DTXSID4036853

> <dsstox_compound_id>
DTXCID2016853

> <qc_level>
DSSTox_Low

> <Canonical_QSARr>
CC(=O)NC1C=CC(=CC=1)C1C=CC(N)=CC=1

> <InChI_Code_QSARr>
InChI=1S/C14H14N2O/c1-10(17)16-14-8-4-12(5-9-14)11-2-6-13(15)7-3-11/h2-9H,15H2,1H3,(H,16,17)

> <InChI Key_QSARr>
DZQXBXZZSKPMDV-UHFFFAOYSA-N

> <Salt_Solvent>


> <Salt_Solvent_ID>
0

> <MPID>
101053

> <Tr_1_Tst_0>
1

> <Ready_Biodeg>
0.0

$$$$
Row1024
  Mrv171c012251911052D          

 22 21  0  0  0  0            999 V2000
   22.1132    5.6047    0.0000 O   0  0  0  0  0  0  0  0  0  0  0  0
   22.1132    6.4297    0.0000 C   0  0  0  0  0  0  0  0  0  0  0  0
   21.3987    6.8422    0.0000 C   0  0  0  0  0  0  0  0  0  0  0  0
   20.6842    6.4297    0.0000 C   0  0  0  0  0  0  0  0  0  0  0  0
   19.9698    6.8422    0.0000 C   0  0  0  0  0  0  0  0  0  0  0  0
   19.2553    6.4297    0.0000 C   0  0  0  0  0  0  0  0  0  0  0  0
   18.5408    6.8422    0.0000 C   0  0  0  0  0  0  0  0  0  0  0  0
   17.8264    6.4297    0.0000 C   0  0  0  0  0  0  0  0  0  0  0  0
   17.1119    6.8422    0.0000 C   0  0  0  0  0  0  0  0  0  0  0  0
   16.3974    6.4297    0.0000 C   0  0  0  0  0  0  0  0  0  0  0  0
   15.6829    6.8422    0.0000 C   0  0  0  0  0  0  0  0  0  0  0  0
   14.9685    6.4297    0.0000 C   0  0  0  0  0  0  0  0  0  0  0  0
   14.2540    6.8422    0.0000 C   0  0  0  0  0  0  0  0  0  0  0  0
   13.5395    6.4297    0.0000 C   0  0  0  0  0  0  0  0  0  0  0  0
   12.8251    6.8422    0.0000 C   0  0  0  0  0  0  0  0  0  0  0  0
   12.1106    6.4297    0.0000 C   0  0  0  0  0  0  0  0  0  0  0  0
   11.3961    6.8422    0.0000 C   0  0  0  0  0  0  0  0  0  0  0  0
   10.6817    6.4297    0.0000 C   0  0  0  0  0  0  0  0  0  0  0  0
    9.9672    6.8422    0.0000 C   0  0  0  0  0  0  0  0  0  0  0  0
   22.8277    6.8422    0.0000 N   0  0  0  0  0  0  0  0  0  0  0  0
   23.5421    6.4297    0.0000 C   0  0  0  0  0  0  0  0  0  0  0  0
   24.2566    6.8422    0.0000 O   0  0  0  0  0  0  0  0  0  0  0  0
  1  2  2  0  0  0  0
  2  3  1  0  0  0  0
  3  4  1  0  0  0  0
  4  5  1  0  0  0  0
  5  6  1  0  0  0  0
  6  7  1  0  0  0  0
  7  8  1  0  0  0  0
  8  9  1  0  0  0  0
  9 10  1  0  0  0  0
 10 11  1  0  0  0  0
 11 12  1  0  0  0  0
 12 13  1  0  0  0  0
 13 14  1  0  0  0  0
 14 15  1  0  0  0  0
 15 16  1  0  0  0  0
 16 17  1  0  0  0  0
 17 18  1  0  0  0  0
 18 19  1  0  0  0  0
  2 20  1  0  0  0  0
 20 21  1  0  0  0  0
 21 22  1  0  0  0  0
M  END
> <ChemID>
101066

> <CAS>
3370-35-2

> <Original_SMILES>
CCCCCCCCCCCCCCCCCC(=O)NCO

> <preferred_name>
Octadecanamide, N-(hydroxymethyl)-

> <dsstox_substance_id>
DTXSID3062998

> <dsstox_compound_id>
DTXCID7038733

> <qc_level>
Public_High

> <Canonical_QSARr>
CCCCCCCCCCCCCCCCCC(=O)NCO

> <InChI_Code_QSARr>
InChI=1S/C19H39NO2/c1-2-3-4-5-6-7-8-9-10-11-12-13-14-15-16-17-19(22)20-18-21/h21H,2-18H2,1H3,(H,20,22)

> <InChI Key_QSARr>
JHOKTNSTUVKGJC-UHFFFAOYSA-N

> <Salt_Solvent>


> <Salt_Solvent_ID>
0

> <MPID>
101054

> <Tr_1_Tst_0>
0

> <Ready_Biodeg>
1.0

$$$$
Row1025
  Mrv171c012251911052D          

 17 18  0  0  0  0            999 V2000
    2.1895   -1.9816    0.0000 O   0  0  0  0  0  0  0  0  0  0  0  0
    2.1895   -1.1566    0.0000 C   0  0  0  0  0  0  0  0  0  0  0  0
    2.9039   -0.7441    0.0000 C   0  0  0  0  0  0  0  0  0  0  0  0
    2.9039    0.0809    0.0000 C   0  0  0  0  0  0  0  0  0  0  0  0
    2.1895    0.4934    0.0000 C   0  0  0  0  0  0  0  0  0  0  0  0
    2.1895    1.3184    0.0000 Cl  0  0  0  0  0  0  0  0  0  0  0  0
    1.4750    0.0809    0.0000 C   0  0  0  0  0  0  0  0  0  0  0  0
    1.4750   -0.7441    0.0000 C   0  0  0  0  0  0  0  0  0  0  0  0
    0.7605   -1.1566    0.0000 O   0  0  0  0  0  0  0  0  0  0  0  0
    2.9039   -2.3941    0.0000 C   0  0  0  0  0  0  0  0  0  0  0  0
    2.9039   -3.2191    0.0000 C   0  0  0  0  0  0  0  0  0  0  0  0
    3.6184   -3.6316    0.0000 C   0  0  0  0  0  0  0  0  0  0  0  0
    4.3329   -3.2191    0.0000 C   0  0  0  0  0  0  0  0  0  0  0  0
    5.0473   -3.6316    0.0000 Cl  0  0  0  0  0  0  0  0  0  0  0  0
    4.3329   -2.3941    0.0000 C   0  0  0  0  0  0  0  0  0  0  0  0
    3.6184   -1.9816    0.0000 C   0  0  0  0  0  0  0  0  0  0  0  0
    3.6184   -1.1566    0.0000 Cl  0  0  0  0  0  0  0  0  0  0  0  0
  1  2  1  0  0  0  0
  3  2  1  0  0  0  0
  4  3  2  0  0  0  0
  5  4  1  0  0  0  0
  5  6  1  0  0  0  0
  7  5  2  0  0  0  0
  8  7  1  0  0  0  0
  2  8  2  0  0  0  0
  8  9  1  0  0  0  0
  1 10  1  0  0  0  0
 11 10  2  0  0  0  0
 12 11  1  0  0  0  0
 13 12  2  0  0  0  0
 13 14  1  0  0  0  0
 15 13  1  0  0  0  0
 16 15  2  0  0  0  0
 10 16  1  0  0  0  0
 16 17  1  0  0  0  0
M  END
> <ChemID>
101067

> <CAS>
3380-34-5

> <Original_SMILES>
Oc1cc(Cl)ccc1Oc1ccc(Cl)cc1Cl

> <preferred_name>
Triclosan

> <dsstox_substance_id>
DTXSID5032498

> <dsstox_compound_id>
DTXCID3012498

> <qc_level>
DSSTox_Low

> <Canonical_QSARr>
OC1C=C(Cl)C=CC=1OC1=CC=C(Cl)C=C1Cl

> <InChI_Code_QSARr>
InChI=1S/C12H7Cl3O2/c13-7-1-3-11(9(15)5-7)17-12-4-2-8(14)6-10(12)16/h1-6,16H

> <InChI Key_QSARr>
XEFQLINVKFYRCS-UHFFFAOYSA-N

> <Salt_Solvent>


> <Salt_Solvent_ID>
0

> <MPID>
101055

> <Tr_1_Tst_0>
1

> <Ready_Biodeg>
0.0

$$$$
Row1026
  Mrv171c012251911052D          

 12 13  0  0  0  0            999 V2000
   -2.5802   -0.6918    0.0000 O   0  0  0  0  0  0  0  0  0  0  0  0
   -2.0953   -1.3592    0.0000 C   0  0  0  0  0  0  0  0  0  0  0  0
   -2.3503   -2.1438    0.0000 O   0  0  0  0  0  0  0  0  0  0  0  0
   -1.3107   -1.1043    0.0000 C   0  0  0  0  0  0  0  0  0  0  0  0
   -1.3107   -0.2793    0.0000 C   0  0  0  0  0  0  0  0  0  0  0  0
   -0.5962    0.1332    0.0000 C   0  0  0  0  0  0  0  0  0  0  0  0
    0.1183   -0.2793    0.0000 C   0  0  0  0  0  0  0  0  0  0  0  0
    0.8327    0.1332    0.0000 C   0  0  0  0  0  0  0  0  0  0  0  0
    0.1183   -1.1043    0.0000 C   0  0  0  0  0  0  0  0  0  0  0  0
   -0.5962   -1.5168    0.0000 C   0  0  0  0  0  0  0  0  0  0  0  0
   -2.0953   -0.0243    0.0000 C   0  0  0  0  0  0  0  0  0  0  0  0
   -2.3503    0.7603    0.0000 O   0  0  0  0  0  0  0  0  0  0  0  0
  2  1  1  0  0  0  0
  2  3  2  0  0  0  0
  4  2  1  0  0  0  0
  4  5  1  0  0  0  0
  5  6  1  0  0  0  0
  6  7  1  0  0  0  0
  7  8  1  0  0  0  0
  7  9  2  0  0  0  0
  9 10  1  0  0  0  0
 10  4  1  0  0  0  0
 11  5  1  0  0  0  0
  1 11  1  0  0  0  0
 11 12  2  0  0  0  0
M  END
> <ChemID>
101068

> <CAS>
3425-89-6

> <Original_SMILES>
CC1CC2C(CC=1)C(=O)OC2=O

> <preferred_name>
3a,4,7,7a-Tetrahydro-5-methyl-1,3-isobenzofurandione

> <dsstox_substance_id>
DTXSID6058714

> <dsstox_compound_id>
DTXCID8032380

> <qc_level>
DSSTox_High

> <Canonical_QSARr>
CC1CC2C(CC=1)C(=O)OC2=O

> <InChI_Code_QSARr>
InChI=1S/C9H10O3/c1-5-2-3-6-7(4-5)9(11)12-8(6)10/h2,6-7H,3-4H2,1H3

> <InChI Key_QSARr>
OEMSKMUAMXLNKL-UHFFFAOYSA-N

> <Salt_Solvent>


> <Salt_Solvent_ID>
0

> <MPID>
101056

> <Tr_1_Tst_0>
1

> <Ready_Biodeg>
0.0

$$$$
Row1027
  Mrv171c012251911052D          

 10 10  0  0  0  0            999 V2000
    2.3645   -0.8250    0.0000 C   0  0  0  0  0  0  0  0  0  0  0  0
    3.0789   -0.4125    0.0000 C   0  0  0  0  0  0  0  0  0  0  0  0
    3.0789    0.4125    0.0000 C   0  0  0  0  0  0  0  0  0  0  0  0
    2.3645    0.8250    0.0000 C   0  0  0  0  0  0  0  0  0  0  0  0
    2.3645    1.6500    0.0000 C   0  0  0  0  0  0  0  0  0  0  0  0
    1.6500    2.0625    0.0000 C   0  0  0  0  0  0  0  0  0  0  0  0
    1.6500    0.4125    0.0000 C   0  0  0  0  0  0  0  0  0  0  0  0
    1.6500   -0.4125    0.0000 C   0  0  0  0  0  0  0  0  0  0  0  0
    2.3645   -1.6500    0.0000 C   0  0  0  0  0  0  0  0  0  0  0  0
    3.0789   -2.0625    0.0000 C   0  0  0  0  0  0  0  0  0  0  0  0
  2  1  1  0  0  0  0
  3  2  2  0  0  0  0
  4  3  1  0  0  0  0
  4  5  1  0  0  0  0
  5  6  2  0  0  0  0
  7  4  2  0  0  0  0
  8  7  1  0  0  0  0
  1  8  2  0  0  0  0
  1  9  1  0  0  0  0
  9 10  1  0  0  0  0
M  END
> <ChemID>
101069

> <CAS>
3454-07-7

> <Original_SMILES>
CCc1ccc(C=C)cc1

> <preferred_name>
4-Ethylstyrene

> <dsstox_substance_id>
DTXSID70188081

> <dsstox_compound_id>
DTXCID00110572

> <qc_level>
Public_Medium

> <Canonical_QSARr>
CCC1=CC=C(C=C)C=C1

> <InChI_Code_QSARr>
InChI=1S/C10H12/c1-3-9-5-7-10(4-2)8-6-9/h3,5-8H,1,4H2,2H3

> <InChI Key_QSARr>
WHFHDVDXYKOSKI-UHFFFAOYSA-N

> <Salt_Solvent>


> <Salt_Solvent_ID>
0

> <MPID>
101057

> <Tr_1_Tst_0>
1

> <Ready_Biodeg>
0.0

$$$$
Row1028
  Mrv171c012251911052D          

 20 19  0  0  0  0            999 V2000
    0.8250   -1.6500    0.0000 Cl  0  0  0  0  0  0  0  0  0  0  0  0
    0.1105   -1.2375    0.0000 Si  0  0  0  0  0  0  0  0  0  0  0  0
    0.5230   -0.5230    0.0000 C   0  0  0  0  0  0  0  0  0  0  0  0
    1.3480   -0.5230    0.0000 C   0  0  0  0  0  0  0  0  0  0  0  0
    1.7605   -1.2375    0.0000 C   0  0  0  0  0  0  0  0  0  0  0  0
    2.5855   -1.2375    0.0000 C   0  0  0  0  0  0  0  0  0  0  0  0
    2.9980   -1.9520    0.0000 C   0  0  0  0  0  0  0  0  0  0  0  0
    3.8230   -1.9520    0.0000 C   0  0  0  0  0  0  0  0  0  0  0  0
   -0.3020   -1.9520    0.0000 C   0  0  0  0  0  0  0  0  0  0  0  0
    0.1105   -2.6665    0.0000 C   0  0  0  0  0  0  0  0  0  0  0  0
   -0.3020   -3.3809    0.0000 C   0  0  0  0  0  0  0  0  0  0  0  0
    0.1105   -4.0954    0.0000 C   0  0  0  0  0  0  0  0  0  0  0  0
   -0.3020   -4.8099    0.0000 C   0  0  0  0  0  0  0  0  0  0  0  0
    0.1105   -5.5243    0.0000 C   0  0  0  0  0  0  0  0  0  0  0  0
   -0.6039   -0.8250    0.0000 C   0  0  0  0  0  0  0  0  0  0  0  0
   -0.6039   -0.0000    0.0000 C   0  0  0  0  0  0  0  0  0  0  0  0
    0.1105    0.4125    0.0000 C   0  0  0  0  0  0  0  0  0  0  0  0
    0.8250   -0.0000    0.0000 C   0  0  0  0  0  0  0  0  0  0  0  0
    1.5395    0.4125    0.0000 C   0  0  0  0  0  0  0  0  0  0  0  0
    2.2539   -0.0000    0.0000 C   0  0  0  0  0  0  0  0  0  0  0  0
  1  2  1  0  0  0  0
  2  3  1  0  0  0  0
  3  4  1  0  0  0  0
  4  5  1  0  0  0  0
  5  6  1  0  0  0  0
  6  7  1  0  0  0  0
  7  8  1  0  0  0  0
  2  9  1  0  0  0  0
  9 10  1  0  0  0  0
 10 11  1  0  0  0  0
 11 12  1  0  0  0  0
 12 13  1  0  0  0  0
 13 14  1  0  0  0  0
  2 15  1  0  0  0  0
 15 16  1  0  0  0  0
 16 17  1  0  0  0  0
 17 18  1  0  0  0  0
 18 19  1  0  0  0  0
 19 20  1  0  0  0  0
M  END
> <ChemID>
101070

> <CAS>
3634-67-1

> <Original_SMILES>
CCCCCC[Si](Cl)(CCCCCC)CCCCCC

> <preferred_name>
Silane, chlorotrihexyl-

> <dsstox_substance_id>
DTXSID0063107

> <dsstox_compound_id>
DTXCID8039160

> <qc_level>
Public_High

> <Canonical_QSARr>
CCCCCC[Si](Cl)(CCCCCC)CCCCCC

> <InChI_Code_QSARr>
InChI=1S/C18H39ClSi/c1-4-7-10-13-16-20(19,17-14-11-8-5-2)18-15-12-9-6-3/h4-18H2,1-3H3

> <InChI Key_QSARr>
WZQSBCHNVPAYOC-UHFFFAOYSA-N

> <Salt_Solvent>


> <Salt_Solvent_ID>
0

> <MPID>
101058

> <Tr_1_Tst_0>
0

> <Ready_Biodeg>
0.0

$$$$
Row1029
  Mrv171c012251911052D          

  7  6  0  0  0  0            999 V2000
    1.3660   -2.5245    0.0000 C   0  0  0  0  0  0  0  0  0  0  0  0
    1.3660   -1.6995    0.0000 C   0  0  0  0  0  0  0  0  0  0  0  0
    1.3660   -0.8745    0.0000 C   0  0  0  0  0  0  0  0  0  0  0  0
    1.3660   -0.0495    0.0000 C   0  0  0  0  0  0  0  0  0  0  0  0
    0.6515    0.3630    0.0000 C   0  0  0  0  0  0  0  0  0  0  0  0
    2.1910   -0.8745    0.0000 C   0  0  0  0  0  0  0  0  0  0  0  0
    0.5410   -0.8745    0.0000 O   0  0  0  0  0  0  0  0  0  0  0  0
  1  2  3  0  0  0  0
  2  3  1  0  0  0  0
  3  4  1  0  0  0  0
  4  5  1  0  0  0  0
  3  6  1  0  0  0  0
  3  7  1  0  0  0  0
M  END
> <ChemID>
101072

> <CAS>
77-75-8

> <Original_SMILES>
CCC(C)(O)C#C

> <preferred_name>
3-Methyl-1-pentyn-3-ol

> <dsstox_substance_id>
DTXSID5021756

> <dsstox_compound_id>
DTXCID401756

> <qc_level>
DSSTox_Low

> <Canonical_QSARr>
CCC(C)(O)C#C

> <InChI_Code_QSARr>
InChI=1S/C6H10O/c1-4-6(3,7)5-2/h1,7H,5H2,2-3H3

> <InChI Key_QSARr>
QXLPXWSKPNOQLE-UHFFFAOYSA-N

> <Salt_Solvent>


> <Salt_Solvent_ID>
0

> <MPID>
101059

> <Tr_1_Tst_0>
1

> <Ready_Biodeg>
1.0

$$$$
Row1030
  Mrv171c012251911052D          

 15 15  0  0  0  0            999 V2000
    4.8220   -2.1478    0.0000 C   0  0  0  0  0  0  0  0  0  0  0  0
    4.1075   -2.5603    0.0000 C   0  0  0  0  0  0  0  0  0  0  0  0
    3.3931   -2.1478    0.0000 C   0  0  0  0  0  0  0  0  0  0  0  0
    2.6786   -2.5603    0.0000 C   0  0  0  0  0  0  0  0  0  0  0  0
    1.9641   -2.1478    0.0000 C   0  0  0  0  0  0  0  0  0  0  0  0
    1.9641   -1.3228    0.0000 O   0  0  0  0  0  0  0  0  0  0  0  0
    1.2497   -0.9103    0.0000 C   0  0  0  0  0  0  0  0  0  0  0  0
    0.5352   -1.3228    0.0000 O   0  0  0  0  0  0  0  0  0  0  0  0
    1.2497   -0.0853    0.0000 N   0  0  0  0  0  0  0  0  0  0  0  0
    0.5352    0.3272    0.0000 C   0  0  0  0  0  0  0  0  0  0  0  0
    1.2497   -2.5603    0.0000 C   0  0  0  0  0  0  0  0  0  0  0  0
    1.2497   -3.3853    0.0000 C   0  0  0  0  0  0  0  0  0  0  0  0
    1.9641   -3.7978    0.0000 C   0  0  0  0  0  0  0  0  0  0  0  0
    2.6786   -3.3853    0.0000 C   0  0  0  0  0  0  0  0  0  0  0  0
    3.3931   -1.3228    0.0000 C   0  0  0  0  0  0  0  0  0  0  0  0
  1  2  1  0  0  0  0
  2  3  1  0  0  0  0
  3  4  1  0  0  0  0
  5  4  1  0  0  0  0
  5  6  1  0  0  0  0
  6  7  1  0  0  0  0
  7  8  2  0  0  0  0
  7  9  1  0  0  0  0
  9 10  1  0  0  0  0
 11  5  2  0  0  0  0
 12 11  1  0  0  0  0
 13 12  2  0  0  0  0
 14 13  1  0  0  0  0
  4 14  2  0  0  0  0
  3 15  1  0  0  0  0
M  END
> <ChemID>
101073

> <CAS>
3766-81-2

> <Original_SMILES>
CCC(C)c1ccccc1OC(=O)NC

> <preferred_name>
Fenobucarb

> <dsstox_substance_id>
DTXSID4058077

> <dsstox_compound_id>
DTXCID0031845

> <qc_level>
DSSTox_High

> <Canonical_QSARr>
CCC(C)C1=CC=CC=C1OC(=O)NC

> <InChI_Code_QSARr>
InChI=1S/C12H17NO2/c1-4-9(2)10-7-5-6-8-11(10)15-12(14)13-3/h5-9H,4H2,1-3H3,(H,13,14)

> <InChI Key_QSARr>
DIRFUJHNVNOBMY-UHFFFAOYSA-N

> <Salt_Solvent>


> <Salt_Solvent_ID>
0

> <MPID>
101060

> <Tr_1_Tst_0>
1

> <Ready_Biodeg>
0.0

$$$$
Row1031
  Mrv171c012251911052D          

 49 50  0  0  0  0            999 V2000
   10.9596   -5.3870    0.0000 C   0  0  0  0  0  0  0  0  0  0  0  0
   10.9596   -6.2120    0.0000 C   0  0  0  0  0  0  0  0  0  0  0  0
   10.2451   -5.7995    0.0000 C   0  0  0  0  0  0  0  0  0  0  0  0
    9.5306   -6.2120    0.0000 O   0  0  0  0  0  0  0  0  0  0  0  0
    9.5306   -7.0370    0.0000 P   0  0  0  0  0  0  0  0  0  0  0  0
    8.8162   -7.4495    0.0000 O   0  0  0  0  0  0  0  0  0  0  0  0
    8.8162   -8.2745    0.0000 C   0  0  0  0  0  0  0  0  0  0  0  0
    8.1017   -8.6870    0.0000 C   0  0  0  0  0  0  0  0  0  0  0  0
    8.1017   -9.5120    0.0000 C   0  0  0  0  0  0  0  0  0  0  0  0
    7.3872   -9.9245    0.0000 C   0  0  0  0  0  0  0  0  0  0  0  0
    7.3872  -10.7495    0.0000 C   0  0  0  0  0  0  0  0  0  0  0  0
    6.6727  -11.1620    0.0000 C   0  0  0  0  0  0  0  0  0  0  0  0
    6.6727  -11.9870    0.0000 C   0  0  0  0  0  0  0  0  0  0  0  0
    5.9583  -12.3995    0.0000 C   0  0  0  0  0  0  0  0  0  0  0  0
    5.9583  -13.2245    0.0000 C   0  0  0  0  0  0  0  0  0  0  0  0
    5.2438  -13.6370    0.0000 C   0  0  0  0  0  0  0  0  0  0  0  0
    5.2438  -14.4620    0.0000 C   0  0  0  0  0  0  0  0  0  0  0  0
    4.5293  -14.8745    0.0000 C   0  0  0  0  0  0  0  0  0  0  0  0
    4.5293  -15.6995    0.0000 C   0  0  0  0  0  0  0  0  0  0  0  0
    3.8149  -16.1120    0.0000 C   0  0  0  0  0  0  0  0  0  0  0  0
    3.8149  -16.9370    0.0000 C   0  0  0  0  0  0  0  0  0  0  0  0
    3.1004  -17.3495    0.0000 C   0  0  0  0  0  0  0  0  0  0  0  0
    3.1004  -18.1745    0.0000 C   0  0  0  0  0  0  0  0  0  0  0  0
    2.3859  -18.5870    0.0000 C   0  0  0  0  0  0  0  0  0  0  0  0
   10.2451   -7.4495    0.0000 O   0  0  0  0  0  0  0  0  0  0  0  0
   10.9596   -7.0370    0.0000 C   0  0  0  0  0  0  0  0  0  0  0  0
   11.6740   -6.6245    0.0000 C   0  0  0  0  0  0  0  0  0  0  0  0
   12.3885   -6.2120    0.0000 O   0  0  0  0  0  0  0  0  0  0  0  0
   12.3885   -5.3870    0.0000 P   0  0  0  0  0  0  0  0  0  0  0  0
   13.1030   -4.9745    0.0000 O   0  0  0  0  0  0  0  0  0  0  0  0
   13.8175   -5.3870    0.0000 C   0  0  0  0  0  0  0  0  0  0  0  0
   14.5319   -4.9745    0.0000 C   0  0  0  0  0  0  0  0  0  0  0  0
   15.2464   -5.3870    0.0000 C   0  0  0  0  0  0  0  0  0  0  0  0
   15.9609   -4.9745    0.0000 C   0  0  0  0  0  0  0  0  0  0  0  0
   16.6753   -5.3870    0.0000 C   0  0  0  0  0  0  0  0  0  0  0  0
   17.3898   -4.9745    0.0000 C   0  0  0  0  0  0  0  0  0  0  0  0
   18.1043   -5.3870    0.0000 C   0  0  0  0  0  0  0  0  0  0  0  0
   18.8187   -4.9745    0.0000 C   0  0  0  0  0  0  0  0  0  0  0  0
   19.5332   -5.3870    0.0000 C   0  0  0  0  0  0  0  0  0  0  0  0
   20.2477   -4.9745    0.0000 C   0  0  0  0  0  0  0  0  0  0  0  0
   20.9622   -5.3870    0.0000 C   0  0  0  0  0  0  0  0  0  0  0  0
   21.6766   -4.9745    0.0000 C   0  0  0  0  0  0  0  0  0  0  0  0
   22.3911   -5.3870    0.0000 C   0  0  0  0  0  0  0  0  0  0  0  0
   23.1056   -4.9745    0.0000 C   0  0  0  0  0  0  0  0  0  0  0  0
   23.8200   -5.3870    0.0000 C   0  0  0  0  0  0  0  0  0  0  0  0
   24.5345   -4.9745    0.0000 C   0  0  0  0  0  0  0  0  0  0  0  0
   25.2490   -5.3870    0.0000 C   0  0  0  0  0  0  0  0  0  0  0  0
   25.9635   -4.9745    0.0000 C   0  0  0  0  0  0  0  0  0  0  0  0
   11.6740   -4.9745    0.0000 O   0  0  0  0  0  0  0  0  0  0  0  0
  2  1  1  0  0  0  0
  3  2  1  0  0  0  0
  4  3  1  0  0  0  0
  5  4  1  0  0  0  0
  5  6  1  0  0  0  0
  6  7  1  0  0  0  0
  7  8  1  0  0  0  0
  8  9  1  0  0  0  0
  9 10  1  0  0  0  0
 10 11  1  0  0  0  0
 11 12  1  0  0  0  0
 12 13  1  0  0  0  0
 13 14  1  0  0  0  0
 14 15  1  0  0  0  0
 15 16  1  0  0  0  0
 16 17  1  0  0  0  0
 17 18  1  0  0  0  0
 18 19  1  0  0  0  0
 19 20  1  0  0  0  0
 20 21  1  0  0  0  0
 21 22  1  0  0  0  0
 22 23  1  0  0  0  0
 23 24  1  0  0  0  0
 25  5  1  0  0  0  0
 26 25  1  0  0  0  0
  2 26  1  0  0  0  0
 27  2  1  0  0  0  0
 28 27  1  0  0  0  0
 29 28  1  0  0  0  0
 29 30  1  0  0  0  0
 30 31  1  0  0  0  0
 31 32  1  0  0  0  0
 32 33  1  0  0  0  0
 33 34  1  0  0  0  0
 34 35  1  0  0  0  0
 35 36  1  0  0  0  0
 36 37  1  0  0  0  0
 37 38  1  0  0  0  0
 38 39  1  0  0  0  0
 39 40  1  0  0  0  0
 40 41  1  0  0  0  0
 41 42  1  0  0  0  0
 42 43  1  0  0  0  0
 43 44  1  0  0  0  0
 44 45  1  0  0  0  0
 45 46  1  0  0  0  0
 46 47  1  0  0  0  0
 47 48  1  0  0  0  0
 49 29  1  0  0  0  0
  1 49  1  0  0  0  0
M  END
> <ChemID>
101075

> <CAS>
3806-34-6

> <Original_SMILES>
CCCCCCCCCCCCCCCCCCOP1OCC2(COP(OC2)OCCCCCCCCCCCCCCCCCC)CO1

> <preferred_name>
2,4,8,10-Tetraoxa-3,9-diphosphaspiro[5.5]undecane, 3,9-bis(octadecyloxy)-

> <dsstox_substance_id>
DTXSID2027549

> <dsstox_compound_id>
DTXCID507549

> <qc_level>
DSSTox_Low

> <Canonical_QSARr>
CCCCCCCCCCCCCCCCCCOP1OCC2(COP(OC2)OCCCCCCCCCCCCCCCCCC)CO1

> <InChI_Code_QSARr>
InChI=1S/C41H82O6P2/c1-3-5-7-9-11-13-15-17-19-21-23-25-27-29-31-33-35-42-48-44-37-41(38-45-48)39-46-49(47-40-41)43-36-34-32-30-28-26-24-22-20-18-16-14-12-10-8-6-4-2/h3-40H2,1-2H3

> <InChI Key_QSARr>
PZRWFKGUFWPFID-UHFFFAOYSA-N

> <Salt_Solvent>


> <Salt_Solvent_ID>
0

> <MPID>
101061

> <Tr_1_Tst_0>
1

> <Ready_Biodeg>
1.0

$$$$
Row1032
  Mrv171c012251911052D          

  9  9  0  0  0  0            999 V2000
    1.1537   -1.4002    0.0000 C   0  0  0  0  0  0  0  0  0  0  0  0
    1.1537   -0.5752    0.0000 C   0  0  0  0  0  0  0  0  0  0  0  0
    1.8682   -0.1627    0.0000 C   0  0  0  0  0  0  0  0  0  0  0  0
    0.4392   -0.1627    0.0000 N   0  0  0  0  0  0  0  0  0  0  0  0
    0.4392   -1.8127    0.0000 C   0  0  0  0  0  0  0  0  0  0  0  0
    0.4392   -2.6377    0.0000 C   0  0  0  0  0  0  0  0  0  0  0  0
    1.1537   -3.0502    0.0000 C   0  0  0  0  0  0  0  0  0  0  0  0
    1.8682   -2.6377    0.0000 C   0  0  0  0  0  0  0  0  0  0  0  0
    1.8682   -1.8127    0.0000 C   0  0  0  0  0  0  0  0  0  0  0  0
  1  2  1  0  0  0  0
  2  3  1  0  0  0  0
  2  4  1  0  0  0  0
  5  1  1  0  0  0  0
  6  5  2  0  0  0  0
  7  6  1  0  0  0  0
  8  7  2  0  0  0  0
  9  8  1  0  0  0  0
  1  9  2  0  0  0  0
M  END
> <ChemID>
101076

> <CAS>
618-36-0

> <Original_SMILES>
C[C@@H](N)c1ccccc1

> <preferred_name>


> <dsstox_substance_id>
DTXSID40862301

> <dsstox_compound_id>
DTXCID20198913

> <qc_level>


> <Canonical_QSARr>
CC(N)C1C=CC=CC=1

> <InChI_Code_QSARr>
InChI=1S/C8H11N/c1-7(9)8-5-3-2-4-6-8/h2-7H,9H2,1H3

> <InChI Key_QSARr>
RQEUFEKYXDPUSK-UHFFFAOYSA-N

> <Salt_Solvent>


> <Salt_Solvent_ID>
0

> <MPID>
101062

> <Tr_1_Tst_0>
0

> <Ready_Biodeg>
0.0

$$$$
Row1033
  Mrv171c012251911052D          

 11 11  0  0  0  0            999 V2000
    4.2480    1.0909    0.0000 Cl  0  0  0  0  0  0  0  0  0  0  0  0
    3.5335    0.6784    0.0000 C   0  0  0  0  0  0  0  0  0  0  0  0
    2.8191    1.0909    0.0000 C   0  0  0  0  0  0  0  0  0  0  0  0
    2.8191    1.9159    0.0000 O   0  0  0  0  0  0  0  0  0  0  0  0
    2.1046    0.6784    0.0000 C   0  0  0  0  0  0  0  0  0  0  0  0
    2.1046   -0.1466    0.0000 C   0  0  0  0  0  0  0  0  0  0  0  0
    2.8191   -0.5591    0.0000 C   0  0  0  0  0  0  0  0  0  0  0  0
    2.8191   -1.3841    0.0000 C   0  0  0  0  0  0  0  0  0  0  0  0
    3.5335   -1.7966    0.0000 O   0  0  0  0  0  0  0  0  0  0  0  0
    2.1046   -1.7966    0.0000 O   0  0  0  0  0  0  0  0  0  0  0  0
    3.5335   -0.1466    0.0000 C   0  0  0  0  0  0  0  0  0  0  0  0
  1  2  1  0  0  0  0
  3  2  2  0  0  0  0
  3  4  1  0  0  0  0
  5  3  1  0  0  0  0
  6  5  2  0  0  0  0
  7  6  1  0  0  0  0
  7  8  1  0  0  0  0
  8  9  2  0  0  0  0
  8 10  1  0  0  0  0
 11  7  2  0  0  0  0
  2 11  1  0  0  0  0
M  END
> <ChemID>
101077

> <CAS>
3964-58-7

> <Original_SMILES>
Oc1ccc(cc1Cl)C(O)=O

> <preferred_name>
3-Chloro-4-hydroxybenzoate

> <dsstox_substance_id>
DTXSID50192747

> <dsstox_compound_id>
DTXCID90115238

> <qc_level>
Public_Medium

> <Canonical_QSARr>
OC1C=CC(=CC=1Cl)C(O)=O

> <InChI_Code_QSARr>
InChI=1S/C7H5ClO3/c8-5-3-4(7(10)11)1-2-6(5)9/h1-3,9H,(H,10,11)

> <InChI Key_QSARr>
QGNLHMKIGMZKJX-UHFFFAOYSA-N

> <Salt_Solvent>


> <Salt_Solvent_ID>
0

> <MPID>
101063

> <Tr_1_Tst_0>
1

> <Ready_Biodeg>
0.0

$$$$
Row1034
  Mrv171c012251911052D          

 12 11  0  0  0  0            999 V2000
    7.8078    2.8578    0.0000 C   0  0  0  0  0  0  0  0  0  0  0  0
    7.0933    3.2703    0.0000 C   0  0  0  0  0  0  0  0  0  0  0  0
    6.3789    2.8578    0.0000 C   0  0  0  0  0  0  0  0  0  0  0  0
    5.6644    3.2703    0.0000 C   0  0  0  0  0  0  0  0  0  0  0  0
    4.9499    2.8578    0.0000 C   0  0  0  0  0  0  0  0  0  0  0  0
    4.2354    3.2703    0.0000 C   0  0  0  0  0  0  0  0  0  0  0  0
    3.5210    2.8578    0.0000 Br  0  0  0  0  0  0  0  0  0  0  0  0
    8.5223    3.2703    0.0000 C   0  0  0  0  0  0  0  0  0  0  0  0
    9.2367    2.8578    0.0000 C   0  0  0  0  0  0  0  0  0  0  0  0
    9.9512    3.2703    0.0000 C   0  0  0  0  0  0  0  0  0  0  0  0
   10.6657    2.8578    0.0000 C   0  0  0  0  0  0  0  0  0  0  0  0
   11.3802    3.2703    0.0000 Br  0  0  0  0  0  0  0  0  0  0  0  0
  1  2  1  0  0  0  0
  2  3  1  0  0  0  0
  3  4  1  0  0  0  0
  4  5  1  0  0  0  0
  5  6  1  0  0  0  0
  6  7  1  0  0  0  0
  1  8  1  0  0  0  0
  8  9  1  0  0  0  0
  9 10  1  0  0  0  0
 10 11  1  0  0  0  0
 11 12  1  0  0  0  0
M  END
> <ChemID>
101079

> <CAS>
4101-68-2

> <Original_SMILES>
BrCCCCCCCCCCBr

> <preferred_name>
Decane, 1,10-dibromo-

> <dsstox_substance_id>
DTXSID4063298

> <dsstox_compound_id>
DTXCID6039845

> <qc_level>
Public_High

> <Canonical_QSARr>
BrCCCCCCCCCCBr

> <InChI_Code_QSARr>
InChI=1S/C10H20Br2/c11-9-7-5-3-1-2-4-6-8-10-12/h1-10H2

> <InChI Key_QSARr>
GTQHJCOHNAFHRE-UHFFFAOYSA-N

> <Salt_Solvent>


> <Salt_Solvent_ID>
0

> <MPID>
101064

> <Tr_1_Tst_0>
1

> <Ready_Biodeg>
0.0

$$$$
Row1035
  Mrv171c012251911052D          

 33 32  0  0  0  0            999 V2000
   13.0808    0.1937    0.0000 O   0  0  0  0  0  0  0  0  0  0  0  0
   12.3664   -0.2188    0.0000 C   0  0  0  0  0  0  0  0  0  0  0  0
   11.6519    0.1937    0.0000 C   0  0  0  0  0  0  0  0  0  0  0  0
   10.9374   -0.2188    0.0000 C   0  0  0  0  0  0  0  0  0  0  0  0
   10.2230    0.1937    0.0000 C   0  0  0  0  0  0  0  0  0  0  0  0
    9.5085   -0.2188    0.0000 C   0  0  0  0  0  0  0  0  0  0  0  0
    8.7940    0.1937    0.0000 C   0  0  0  0  0  0  0  0  0  0  0  0
    8.0795   -0.2188    0.0000 C   0  0  0  0  0  0  0  0  0  0  0  0
    7.3651    0.1937    0.0000 C   0  0  0  0  0  0  0  0  0  0  0  0
    6.6506   -0.2188    0.0000 C   0  0  0  0  0  0  0  0  0  0  0  0
    5.9361    0.1937    0.0000 C   0  0  0  0  0  0  0  0  0  0  0  0
    5.2217   -0.2188    0.0000 C   0  0  0  0  0  0  0  0  0  0  0  0
    4.5072    0.1937    0.0000 C   0  0  0  0  0  0  0  0  0  0  0  0
    3.7927   -0.2188    0.0000 C   0  0  0  0  0  0  0  0  0  0  0  0
    3.0782    0.1937    0.0000 C   0  0  0  0  0  0  0  0  0  0  0  0
    2.3638   -0.2188    0.0000 C   0  0  0  0  0  0  0  0  0  0  0  0
    1.6493    0.1937    0.0000 C   0  0  0  0  0  0  0  0  0  0  0  0
   13.7953   -0.2188    0.0000 C   0  0  0  0  0  0  0  0  0  0  0  0
   14.5098    0.1937    0.0000 C   0  0  0  0  0  0  0  0  0  0  0  0
   15.2243   -0.2188    0.0000 C   0  0  0  0  0  0  0  0  0  0  0  0
   15.9387    0.1937    0.0000 C   0  0  0  0  0  0  0  0  0  0  0  0
   16.6532   -0.2188    0.0000 C   0  0  0  0  0  0  0  0  0  0  0  0
   17.3677    0.1937    0.0000 C   0  0  0  0  0  0  0  0  0  0  0  0
   18.0821   -0.2188    0.0000 C   0  0  0  0  0  0  0  0  0  0  0  0
   18.7966    0.1937    0.0000 C   0  0  0  0  0  0  0  0  0  0  0  0
   19.5111   -0.2188    0.0000 C   0  0  0  0  0  0  0  0  0  0  0  0
   20.2256    0.1937    0.0000 C   0  0  0  0  0  0  0  0  0  0  0  0
   20.9400   -0.2188    0.0000 C   0  0  0  0  0  0  0  0  0  0  0  0
   21.6545    0.1937    0.0000 C   0  0  0  0  0  0  0  0  0  0  0  0
   22.3690   -0.2188    0.0000 C   0  0  0  0  0  0  0  0  0  0  0  0
   23.0834    0.1937    0.0000 C   0  0  0  0  0  0  0  0  0  0  0  0
   23.7979   -0.2188    0.0000 C   0  0  0  0  0  0  0  0  0  0  0  0
   24.5124    0.1937    0.0000 C   0  0  0  0  0  0  0  0  0  0  0  0
  1  2  1  0  0  0  0
  2  3  1  0  0  0  0
  3  4  1  0  0  0  0
  4  5  1  0  0  0  0
  5  6  1  0  0  0  0
  6  7  1  0  0  0  0
  7  8  1  0  0  0  0
  8  9  1  0  0  0  0
  9 10  1  0  0  0  0
 10 11  1  0  0  0  0
 11 12  1  0  0  0  0
 12 13  1  0  0  0  0
 13 14  1  0  0  0  0
 14 15  1  0  0  0  0
 15 16  1  0  0  0  0
 16 17  1  0  0  0  0
  1 18  1  0  0  0  0
 18 19  1  0  0  0  0
 19 20  1  0  0  0  0
 20 21  1  0  0  0  0
 21 22  1  0  0  0  0
 22 23  1  0  0  0  0
 23 24  1  0  0  0  0
 24 25  1  0  0  0  0
 25 26  1  0  0  0  0
 26 27  1  0  0  0  0
 27 28  1  0  0  0  0
 28 29  1  0  0  0  0
 29 30  1  0  0  0  0
 30 31  1  0  0  0  0
 31 32  1  0  0  0  0
 32 33  1  0  0  0  0
M  END
> <ChemID>
101080

> <CAS>
4113-12-6

> <Original_SMILES>
CCCCCCCCCCCCCCCCOCCCCCCCCCCCCCCCC

> <preferred_name>
Dicetyl ether

> <dsstox_substance_id>
DTXSID30194067

> <dsstox_compound_id>
DTXCID40116558

> <qc_level>
Public_Medium

> <Canonical_QSARr>
CCCCCCCCCCCCCCCCOCCCCCCCCCCCCCCCC

> <InChI_Code_QSARr>
InChI=1S/C32H66O/c1-3-5-7-9-11-13-15-17-19-21-23-25-27-29-31-33-32-30-28-26-24-22-20-18-16-14-12-10-8-6-4-2/h3-32H2,1-2H3

> <InChI Key_QSARr>
FDCJDKXCCYFOCV-UHFFFAOYSA-N

> <Salt_Solvent>


> <Salt_Solvent_ID>
0

> <MPID>
101065

> <Tr_1_Tst_0>
1

> <Ready_Biodeg>
0.0

$$$$
Row1036
  Mrv171c012251911052D          

 17 17  0  0  0  0            999 V2000
    2.6156   -1.0137    0.0000 C   0  0  0  0  0  0  0  0  0  0  0  0
    1.9011   -0.6012    0.0000 C   0  0  0  0  0  0  0  0  0  0  0  0
    1.9011    0.2238    0.0000 C   0  0  0  0  0  0  0  0  0  0  0  0
    1.9011    1.0488    0.0000 C   0  0  0  0  0  0  0  0  0  0  0  0
    1.0761    0.2238    0.0000 C   0  0  0  0  0  0  0  0  0  0  0  0
    2.7261    0.2238    0.0000 C   0  0  0  0  0  0  0  0  0  0  0  0
    1.1867   -1.0137    0.0000 C   0  0  0  0  0  0  0  0  0  0  0  0
    1.1867   -1.8387    0.0000 C   0  0  0  0  0  0  0  0  0  0  0  0
    0.4722   -2.2512    0.0000 C   0  0  0  0  0  0  0  0  0  0  0  0
    0.4722   -3.0762    0.0000 C   0  0  0  0  0  0  0  0  0  0  0  0
    1.9011   -2.2512    0.0000 C   0  0  0  0  0  0  0  0  0  0  0  0
    2.6156   -1.8387    0.0000 C   0  0  0  0  0  0  0  0  0  0  0  0
    3.3301   -2.2512    0.0000 C   0  0  0  0  0  0  0  0  0  0  0  0
    4.0445   -2.6637    0.0000 C   0  0  0  0  0  0  0  0  0  0  0  0
    3.7426   -1.5367    0.0000 C   0  0  0  0  0  0  0  0  0  0  0  0
    2.9176   -2.9657    0.0000 C   0  0  0  0  0  0  0  0  0  0  0  0
    3.3301   -0.6012    0.0000 O   0  0  0  0  0  0  0  0  0  0  0  0
  2  1  1  0  0  0  0
  2  3  1  0  0  0  0
  3  4  1  0  0  0  0
  3  5  1  0  0  0  0
  3  6  1  0  0  0  0
  7  2  2  0  0  0  0
  8  7  1  0  0  0  0
  8  9  1  0  0  0  0
  9 10  1  0  0  0  0
 11  8  2  0  0  0  0
 12 11  1  0  0  0  0
  1 12  2  0  0  0  0
 12 13  1  0  0  0  0
 13 14  1  0  0  0  0
 13 15  1  0  0  0  0
 13 16  1  0  0  0  0
  1 17  1  0  0  0  0
M  END
> <ChemID>
101081

> <CAS>
4130-42-1

> <Original_SMILES>
CCc1cc(c(O)c(c1)C(C)(C)C)C(C)(C)C

> <preferred_name>
2,6-Di-tert-butyl-4-ethylphenol

> <dsstox_substance_id>
DTXSID0029262

> <dsstox_compound_id>
DTXCID909262

> <qc_level>
DSSTox_Low

> <Canonical_QSARr>
CCC1=CC(=C(O)C(=C1)C(C)(C)C)C(C)(C)C

> <InChI_Code_QSARr>
InChI=1S/C16H26O/c1-8-11-9-12(15(2,3)4)14(17)13(10-11)16(5,6)7/h9-10,17H,8H2,1-7H3

> <InChI Key_QSARr>
BVUXDWXKPROUDO-UHFFFAOYSA-N

> <Salt_Solvent>


> <Salt_Solvent_ID>
0

> <MPID>
101066

> <Tr_1_Tst_0>
0

> <Ready_Biodeg>
0.0

$$$$
Row1037
  Mrv171c012251911052D          

 27 28  0  0  0  0            999 V2000
    8.7048   -0.2871    0.0000 C   0  0  0  0  0  0  0  0  0  0  0  0
    9.4193   -0.6996    0.0000 O   0  0  0  0  0  0  0  0  0  0  0  0
    7.9903   -0.6996    0.0000 C   0  0  0  0  0  0  0  0  0  0  0  0
    7.2759   -0.2871    0.0000 O   0  0  0  0  0  0  0  0  0  0  0  0
    6.5614   -0.6996    0.0000 C   0  0  0  0  0  0  0  0  0  0  0  0
    5.8469   -0.2871    0.0000 C   0  0  0  0  0  0  0  0  0  0  0  0
    5.8469    0.5379    0.0000 Br  0  0  0  0  0  0  0  0  0  0  0  0
    5.1324   -0.6996    0.0000 C   0  0  0  0  0  0  0  0  0  0  0  0
    5.1324   -1.5246    0.0000 C   0  0  0  0  0  0  0  0  0  0  0  0
    4.4180   -1.9371    0.0000 C   0  0  0  0  0  0  0  0  0  0  0  0
    3.7035   -2.3496    0.0000 C   0  0  0  0  0  0  0  0  0  0  0  0
    2.9890   -1.9371    0.0000 C   0  0  0  0  0  0  0  0  0  0  0  0
    2.2746   -2.3496    0.0000 C   0  0  0  0  0  0  0  0  0  0  0  0
    1.5601   -1.9371    0.0000 Br  0  0  0  0  0  0  0  0  0  0  0  0
    2.2746   -3.1746    0.0000 C   0  0  0  0  0  0  0  0  0  0  0  0
    1.5601   -3.5871    0.0000 O   0  0  0  0  0  0  0  0  0  0  0  0
    1.5601   -4.4121    0.0000 C   0  0  0  0  0  0  0  0  0  0  0  0
    0.8456   -4.8246    0.0000 C   0  0  0  0  0  0  0  0  0  0  0  0
    0.8456   -5.6496    0.0000 O   0  0  0  0  0  0  0  0  0  0  0  0
    2.9890   -3.5871    0.0000 C   0  0  0  0  0  0  0  0  0  0  0  0
    2.9890   -4.4121    0.0000 Br  0  0  0  0  0  0  0  0  0  0  0  0
    3.7035   -3.1746    0.0000 C   0  0  0  0  0  0  0  0  0  0  0  0
    4.0055   -1.2226    0.0000 C   0  0  0  0  0  0  0  0  0  0  0  0
    4.8305   -2.6516    0.0000 C   0  0  0  0  0  0  0  0  0  0  0  0
    5.8469   -1.9371    0.0000 C   0  0  0  0  0  0  0  0  0  0  0  0
    6.5614   -1.5246    0.0000 C   0  0  0  0  0  0  0  0  0  0  0  0
    7.2759   -1.9371    0.0000 Br  0  0  0  0  0  0  0  0  0  0  0  0
  1  2  1  0  0  0  0
  1  3  1  0  0  0  0
  3  4  1  0  0  0  0
  4  5  1  0  0  0  0
  6  5  1  0  0  0  0
  6  7  1  0  0  0  0
  8  6  2  0  0  0  0
  9  8  1  0  0  0  0
  9 10  1  0  0  0  0
 10 11  1  0  0  0  0
 12 11  2  0  0  0  0
 13 12  1  0  0  0  0
 13 14  1  0  0  0  0
 15 13  2  0  0  0  0
 15 16  1  0  0  0  0
 16 17  1  0  0  0  0
 17 18  1  0  0  0  0
 18 19  1  0  0  0  0
 20 15  1  0  0  0  0
 20 21  1  0  0  0  0
 22 20  2  0  0  0  0
 11 22  1  0  0  0  0
 10 23  1  0  0  0  0
 10 24  1  0  0  0  0
 25  9  2  0  0  0  0
 26 25  1  0  0  0  0
  5 26  2  0  0  0  0
 26 27  1  0  0  0  0
M  END
> <ChemID>
101082

> <CAS>
4162-45-2

> <Original_SMILES>
CC(C)(c1cc(Br)c(OCCO)c(Br)c1)c1cc(Br)c(OCCO)c(Br)c1

> <preferred_name>
Tetrabromobisphenol A bis(2-hydroxyethyl) ether

> <dsstox_substance_id>
DTXSID4038922

> <dsstox_compound_id>
DTXCID2018922

> <qc_level>
DSSTox_Low

> <Canonical_QSARr>
CC(C)(C1=CC(Br)=C(OCCO)C(Br)=C1)C1=CC(Br)=C(OCCO)C(Br)=C1

> <InChI_Code_QSARr>
InChI=1S/C19H20Br4O4/c1-19(2,11-7-13(20)17(14(21)8-11)26-5-3-24)12-9-15(22)18(16(23)10-12)27-6-4-25/h7-10,24-25H,3-6H2,1-2H3

> <InChI Key_QSARr>
RVHUMFJSCJBNGS-UHFFFAOYSA-N

> <Salt_Solvent>


> <Salt_Solvent_ID>
0

> <MPID>
101067

> <Tr_1_Tst_0>
1

> <Ready_Biodeg>
0.0

$$$$
Row1038
  Mrv171c012251911052D          

 40 39  0  0  0  0            999 V2000
   34.4265   13.2751    0.0000 C   0  0  0  0  0  0  0  0  0  0  0  0
   33.7120   12.8626    0.0000 C   0  0  0  0  0  0  0  0  0  0  0  0
   32.9975   13.2751    0.0000 C   0  0  0  0  0  0  0  0  0  0  0  0
   32.2831   12.8626    0.0000 C   0  0  0  0  0  0  0  0  0  0  0  0
   31.5686   13.2751    0.0000 C   0  0  0  0  0  0  0  0  0  0  0  0
   30.8541   12.8626    0.0000 C   0  0  0  0  0  0  0  0  0  0  0  0
   30.1396   13.2751    0.0000 C   0  0  0  0  0  0  0  0  0  0  0  0
   29.4252   12.8626    0.0000 C   0  0  0  0  0  0  0  0  0  0  0  0
   28.7107   13.2751    0.0000 C   0  0  0  0  0  0  0  0  0  0  0  0
   27.9962   12.8626    0.0000 C   0  0  0  0  0  0  0  0  0  0  0  0
   27.2818   13.2751    0.0000 C   0  0  0  0  0  0  0  0  0  0  0  0
   26.5673   12.8626    0.0000 C   0  0  0  0  0  0  0  0  0  0  0  0
   25.8528   13.2751    0.0000 C   0  0  0  0  0  0  0  0  0  0  0  0
   25.1383   12.8626    0.0000 C   0  0  0  0  0  0  0  0  0  0  0  0
   24.4239   13.2751    0.0000 C   0  0  0  0  0  0  0  0  0  0  0  0
   23.7094   12.8626    0.0000 C   0  0  0  0  0  0  0  0  0  0  0  0
   22.9949   13.2751    0.0000 C   0  0  0  0  0  0  0  0  0  0  0  0
   22.2805   12.8626    0.0000 C   0  0  0  0  0  0  0  0  0  0  0  0
   21.5660   13.2751    0.0000 C   0  0  0  0  0  0  0  0  0  0  0  0
   20.8515   12.8626    0.0000 C   0  0  0  0  0  0  0  0  0  0  0  0
   35.1409   12.8626    0.0000 C   0  0  0  0  0  0  0  0  0  0  0  0
   35.8554   13.2751    0.0000 C   0  0  0  0  0  0  0  0  0  0  0  0
   36.5699   12.8626    0.0000 C   0  0  0  0  0  0  0  0  0  0  0  0
   37.2843   13.2751    0.0000 C   0  0  0  0  0  0  0  0  0  0  0  0
   37.9988   12.8626    0.0000 C   0  0  0  0  0  0  0  0  0  0  0  0
   38.7133   13.2751    0.0000 C   0  0  0  0  0  0  0  0  0  0  0  0
   39.4278   12.8626    0.0000 C   0  0  0  0  0  0  0  0  0  0  0  0
   40.1422   13.2751    0.0000 C   0  0  0  0  0  0  0  0  0  0  0  0
   40.8567   12.8626    0.0000 C   0  0  0  0  0  0  0  0  0  0  0  0
   41.5712   13.2751    0.0000 C   0  0  0  0  0  0  0  0  0  0  0  0
   42.2856   12.8626    0.0000 C   0  0  0  0  0  0  0  0  0  0  0  0
   43.0001   13.2751    0.0000 C   0  0  0  0  0  0  0  0  0  0  0  0
   43.7146   12.8626    0.0000 C   0  0  0  0  0  0  0  0  0  0  0  0
   44.4291   13.2751    0.0000 C   0  0  0  0  0  0  0  0  0  0  0  0
   45.1435   12.8626    0.0000 C   0  0  0  0  0  0  0  0  0  0  0  0
   45.8580   13.2751    0.0000 C   0  0  0  0  0  0  0  0  0  0  0  0
   46.5725   12.8626    0.0000 C   0  0  0  0  0  0  0  0  0  0  0  0
   47.2869   13.2751    0.0000 C   0  0  0  0  0  0  0  0  0  0  0  0
   48.0014   12.8626    0.0000 C   0  0  0  0  0  0  0  0  0  0  0  0
   48.7159   13.2751    0.0000 C   0  0  0  0  0  0  0  0  0  0  0  0
  1  2  1  0  0  0  0
  2  3  1  0  0  0  0
  3  4  1  0  0  0  0
  4  5  1  0  0  0  0
  5  6  1  0  0  0  0
  6  7  1  0  0  0  0
  7  8  1  0  0  0  0
  8  9  1  0  0  0  0
  9 10  1  0  0  0  0
 10 11  1  0  0  0  0
 11 12  1  0  0  0  0
 12 13  1  0  0  0  0
 13 14  1  0  0  0  0
 14 15  1  0  0  0  0
 15 16  1  0  0  0  0
 16 17  1  0  0  0  0
 17 18  1  0  0  0  0
 18 19  1  0  0  0  0
 19 20  1  0  0  0  0
  1 21  1  0  0  0  0
 21 22  1  0  0  0  0
 22 23  1  0  0  0  0
 23 24  1  0  0  0  0
 24 25  1  0  0  0  0
 25 26  1  0  0  0  0
 26 27  1  0  0  0  0
 27 28  1  0  0  0  0
 28 29  1  0  0  0  0
 29 30  1  0  0  0  0
 30 31  1  0  0  0  0
 31 32  1  0  0  0  0
 32 33  1  0  0  0  0
 33 34  1  0  0  0  0
 34 35  1  0  0  0  0
 35 36  1  0  0  0  0
 36 37  1  0  0  0  0
 37 38  1  0  0  0  0
 38 39  1  0  0  0  0
 39 40  1  0  0  0  0
M  END
> <ChemID>
101083

> <CAS>
4181-95-7

> <Original_SMILES>
CCCCCCCCCCCCCCCCCCCCCCCCCCCCCCCCCCCCCCCC

> <preferred_name>
Tetracontane

> <dsstox_substance_id>
DTXSID2063341

> <dsstox_compound_id>
DTXCID4039990

> <qc_level>
Public_High

> <Canonical_QSARr>
CCCCCCCCCCCCCCCCCCCCCCCCCCCCCCCCCCCCCCCC

> <InChI_Code_QSARr>
InChI=1S/C40H82/c1-3-5-7-9-11-13-15-17-19-21-23-25-27-29-31-33-35-37-39-40-38-36-34-32-30-28-26-24-22-20-18-16-14-12-10-8-6-4-2/h3-40H2,1-2H3

> <InChI Key_QSARr>
KUPLEGDPSCCPJI-UHFFFAOYSA-N

> <Salt_Solvent>


> <Salt_Solvent_ID>
0

> <MPID>
101068

> <Tr_1_Tst_0>
1

> <Ready_Biodeg>
1.0

$$$$
Row1039
  Mrv171c012251911052D          

 15 16  0  0  0  0            999 V2000
    1.9523   -2.2634    0.0000 C   0  0  0  0  0  0  0  0  0  0  0  0
    1.9523   -3.0884    0.0000 C   0  0  0  0  0  0  0  0  0  0  0  0
    2.6667   -3.5009    0.0000 C   0  0  0  0  0  0  0  0  0  0  0  0
    3.3812   -3.0884    0.0000 C   0  0  0  0  0  0  0  0  0  0  0  0
    3.3812   -2.2634    0.0000 C   0  0  0  0  0  0  0  0  0  0  0  0
    2.6667   -1.8509    0.0000 C   0  0  0  0  0  0  0  0  0  0  0  0
    2.6667   -1.0259    0.0000 C   0  0  0  0  0  0  0  0  0  0  0  0
    1.9523   -0.6134    0.0000 C   0  0  0  0  0  0  0  0  0  0  0  0
    1.9523    0.2116    0.0000 C   0  0  0  0  0  0  0  0  0  0  0  0
    1.2378    0.6241    0.0000 C   0  0  0  0  0  0  0  0  0  0  0  0
    0.5233    0.2116    0.0000 C   0  0  0  0  0  0  0  0  0  0  0  0
    0.5233   -0.6134    0.0000 C   0  0  0  0  0  0  0  0  0  0  0  0
    1.2378   -1.0259    0.0000 C   0  0  0  0  0  0  0  0  0  0  0  0
    3.3812   -0.6134    0.0000 C   0  0  0  0  0  0  0  0  0  0  0  0
    1.2378   -1.8509    0.0000 O   0  0  0  0  0  0  0  0  0  0  0  0
  2  1  1  0  0  0  0
  3  2  2  0  0  0  0
  4  3  1  0  0  0  0
  5  4  2  0  0  0  0
  6  5  1  0  0  0  0
  1  6  2  0  0  0  0
  6  7  1  0  0  0  0
  7  8  1  0  0  0  0
  9  8  1  0  0  0  0
 10  9  2  0  0  0  0
 11 10  1  0  0  0  0
 12 11  2  0  0  0  0
 13 12  1  0  0  0  0
  8 13  2  0  0  0  0
  7 14  1  0  0  0  0
  1 15  1  0  0  0  0
M  END
> <ChemID>
101084

> <CAS>
4237-44-9

> <Original_SMILES>
CC(c1ccccc1O)c1ccccc1

> <preferred_name>


> <dsstox_substance_id>
DTXSID90863348

> <dsstox_compound_id>
DTXCID90811980

> <qc_level>


> <Canonical_QSARr>
CC(C1C=CC=CC=1O)C1C=CC=CC=1

> <InChI_Code_QSARr>
InChI=1S/C14H14O/c1-11(12-7-3-2-4-8-12)13-9-5-6-10-14(13)15/h2-11,15H,1H3

> <InChI Key_QSARr>
WYZIVNCBUWDCOZ-UHFFFAOYSA-N

> <Salt_Solvent>


> <Salt_Solvent_ID>
0

> <MPID>
101069

> <Tr_1_Tst_0>
1

> <Ready_Biodeg>
0.0

$$$$
Row1040
  Mrv171c012251911052D          

  8  8  0  0  0  0            999 V2000
    4.2364   -0.4125    0.0000 N   0  0  0  0  0  0  0  0  0  0  0  0
    4.2364    0.4125    0.0000 C   0  0  0  0  0  0  0  0  0  0  0  0
    3.5219    0.8250    0.0000 C   0  0  0  0  0  0  0  0  0  0  0  0
    3.5219    1.6500    0.0000 N   0  0  0  0  0  0  0  0  0  0  0  0
    2.8075    0.4125    0.0000 C   0  0  0  0  0  0  0  0  0  0  0  0
    2.8075   -0.4125    0.0000 C   0  0  0  0  0  0  0  0  0  0  0  0
    3.5219   -0.8250    0.0000 C   0  0  0  0  0  0  0  0  0  0  0  0
    3.5219   -1.6500    0.0000 N   0  0  0  0  0  0  0  0  0  0  0  0
  2  1  1  0  0  0  0
  3  2  2  0  0  0  0
  3  4  1  0  0  0  0
  5  3  1  0  0  0  0
  6  5  2  0  0  0  0
  7  6  1  0  0  0  0
  1  7  2  0  0  0  0
  7  8  1  0  0  0  0
M  END
> <ChemID>
101085

> <CAS>
4318-76-7

> <Original_SMILES>
Nc1c[n]c(N)cc1

> <preferred_name>
Pyridine, 2,5-diamino-

> <dsstox_substance_id>
DTXSID20195765

> <dsstox_compound_id>
DTXCID60118256

> <qc_level>
Public_Medium

> <Canonical_QSARr>
NC1=CN=C(N)C=C1

> <InChI_Code_QSARr>
InChI=1S/C5H7N3/c6-4-1-2-5(7)8-3-4/h1-3H,6H2,(H2,7,8)

> <InChI Key_QSARr>
MIROPXUFDXCYLG-UHFFFAOYSA-N

> <Salt_Solvent>


> <Salt_Solvent_ID>
0

> <MPID>
101070

> <Tr_1_Tst_0>
0

> <Ready_Biodeg>
1.0

$$$$
Row1041
  Mrv171c012251911052D          

 16 15  0  0  0  0            999 V2000
    3.3973    0.6451    0.0000 C   0  0  0  0  0  0  0  0  0  0  0  0
    2.9848    1.3595    0.0000 C   0  0  0  0  0  0  0  0  0  0  0  0
    2.5723    2.0740    0.0000 C   0  0  0  0  0  0  0  0  0  0  0  0
    2.2704    0.9470    0.0000 C   0  0  0  0  0  0  0  0  0  0  0  0
    3.6993    1.7720    0.0000 C   0  0  0  0  0  0  0  0  0  0  0  0
    2.9848   -0.0694    0.0000 C   0  0  0  0  0  0  0  0  0  0  0  0
    3.3973   -0.7839    0.0000 C   0  0  0  0  0  0  0  0  0  0  0  0
    2.9848   -1.4984    0.0000 C   0  0  0  0  0  0  0  0  0  0  0  0
    2.2704   -1.0859    0.0000 C   0  0  0  0  0  0  0  0  0  0  0  0
    3.6993   -1.9109    0.0000 C   0  0  0  0  0  0  0  0  0  0  0  0
    2.5723   -2.2128    0.0000 C   0  0  0  0  0  0  0  0  0  0  0  0
    2.9848   -2.9273    0.0000 C   0  0  0  0  0  0  0  0  0  0  0  0
    3.3973   -3.6418    0.0000 C   0  0  0  0  0  0  0  0  0  0  0  0
    2.2704   -3.3398    0.0000 C   0  0  0  0  0  0  0  0  0  0  0  0
    3.6993   -2.5148    0.0000 C   0  0  0  0  0  0  0  0  0  0  0  0
    2.1598   -0.0694    0.0000 C   0  0  0  0  0  0  0  0  0  0  0  0
  1  2  1  0  0  0  0
  2  3  1  0  0  0  0
  2  4  1  0  0  0  0
  2  5  1  0  0  0  0
  1  6  1  0  0  0  0
  6  7  1  0  0  0  0
  7  8  1  0  0  0  0
  8  9  1  0  0  0  0
  8 10  1  0  0  0  0
  8 11  1  0  0  0  0
 11 12  1  0  0  0  0
 12 13  1  0  0  0  0
 12 14  1  0  0  0  0
 12 15  1  0  0  0  0
  6 16  1  0  0  0  0
M  END
> <ChemID>
101086

> <CAS>
4390-04-9

> <Original_SMILES>
CC(CC(C)(C)C)CC(C)(C)CC(C)(C)C

> <preferred_name>
2,2,4,4,6,8,8-Heptamethylnonane

> <dsstox_substance_id>
DTXSID7052101

> <dsstox_compound_id>
DTXCID5030668

> <qc_level>
DSSTox_High

> <Canonical_QSARr>
CC(CC(C)(C)C)CC(C)(C)CC(C)(C)C

> <InChI_Code_QSARr>
InChI=1S/C16H34/c1-13(10-14(2,3)4)11-16(8,9)12-15(5,6)7/h13H,10-12H2,1-9H3

> <InChI Key_QSARr>
VCLJODPNBNEBKW-UHFFFAOYSA-N

> <Salt_Solvent>


> <Salt_Solvent_ID>
0

> <MPID>
101071

> <Tr_1_Tst_0>
1

> <Ready_Biodeg>
0.0

$$$$
Row1042
  Mrv171c012251911052D          

 18 17  0  0  0  0            999 V2000
    1.9520    0.3020    0.0000 C   0  0  0  0  0  0  0  0  0  0  0  0
    1.2375    0.7145    0.0000 C   0  0  0  0  0  0  0  0  0  0  0  0
    1.6500    1.4289    0.0000 C   0  0  0  0  0  0  0  0  0  0  0  0
    2.4750    1.4289    0.0000 C   0  0  0  0  0  0  0  0  0  0  0  0
    2.8875    2.1434    0.0000 C   0  0  0  0  0  0  0  0  0  0  0  0
    2.8875    0.7145    0.0000 C   0  0  0  0  0  0  0  0  0  0  0  0
    0.5230    1.1270    0.0000 C   0  0  0  0  0  0  0  0  0  0  0  0
   -0.1914    1.5395    0.0000 N   0  0  0  0  0  0  0  0  0  0  0  0
    0.8250    0.0000    0.0000 N   0  0  0  0  0  0  0  0  0  0  0  0
    0.0000    0.0000    0.0000 N   0  0  0  0  0  0  0  0  0  0  0  0
   -0.4125   -0.7145    0.0000 C   0  0  0  0  0  0  0  0  0  0  0  0
   -1.1270   -0.3020    0.0000 C   0  0  0  0  0  0  0  0  0  0  0  0
   -0.8250   -1.4289    0.0000 C   0  0  0  0  0  0  0  0  0  0  0  0
   -1.6500   -1.4289    0.0000 C   0  0  0  0  0  0  0  0  0  0  0  0
   -2.0625   -2.1434    0.0000 C   0  0  0  0  0  0  0  0  0  0  0  0
   -2.0625   -0.7145    0.0000 C   0  0  0  0  0  0  0  0  0  0  0  0
    0.3020   -1.1270    0.0000 C   0  0  0  0  0  0  0  0  0  0  0  0
    1.0164   -1.5395    0.0000 N   0  0  0  0  0  0  0  0  0  0  0  0
  1  2  1  0  0  0  0
  2  3  1  0  0  0  0
  3  4  1  0  0  0  0
  4  5  1  0  0  0  0
  4  6  1  0  0  0  0
  2  7  1  0  0  0  0
  7  8  3  0  0  0  0
  9  2  1  4  0  0  0
  9 10  2  0  0  0  0
 10 11  1  0  0  0  0
 11 12  1  0  0  0  0
 11 13  1  0  0  0  0
 13 14  1  0  0  0  0
 14 15  1  0  0  0  0
 14 16  1  0  0  0  0
 11 17  1  0  0  0  0
 17 18  3  0  0  0  0
M  END
> <ChemID>
101087

> <CAS>
4419-11-8

> <Original_SMILES>
CC(CC(C)C)(C#N)/N=N/C(C)(CC(C)C)C#N

> <preferred_name>
2,2'-Azobis(2,4-dimethylvaleronitrile)

> <dsstox_substance_id>
DTXSID3044675

> <dsstox_compound_id>
DTXCID60809894

> <qc_level>
DSSTox_Low

> <Canonical_QSARr>
CC(CC(C)C)(C#N)N=NC(C)(CC(C)C)C#N

> <InChI_Code_QSARr>
InChI=1S/C14H24N4/c1-11(2)7-13(5,9-15)17-18-14(6,10-16)8-12(3)4/h11-12H,7-8H2,1-6H3

> <InChI Key_QSARr>
WYGWHHGCAGTUCH-UHFFFAOYSA-N

> <Salt_Solvent>


> <Salt_Solvent_ID>
0

> <MPID>
101072

> <Tr_1_Tst_0>
1

> <Ready_Biodeg>
0.0

$$$$
Row1043
  Mrv171c012251911052D          

 10  9  0  0  0  0            999 V2000
   -0.0672   -1.5306    0.0000 C   0  0  0  0  0  0  0  0  0  0  0  0
    0.6472   -1.1181    0.0000 C   0  0  0  0  0  0  0  0  0  0  0  0
    0.6472   -0.2931    0.0000 O   0  0  0  0  0  0  0  0  0  0  0  0
    1.3617   -1.5306    0.0000 O   0  0  0  0  0  0  0  0  0  0  0  0
    2.0762   -1.1181    0.0000 C   0  0  0  0  0  0  0  0  0  0  0  0
    2.7906   -1.5306    0.0000 C   0  0  0  0  0  0  0  0  0  0  0  0
    3.5051   -1.1181    0.0000 C   0  0  0  0  0  0  0  0  0  0  0  0
    4.2196   -1.5306    0.0000 O   0  0  0  0  0  0  0  0  0  0  0  0
    4.9340   -1.1181    0.0000 C   0  0  0  0  0  0  0  0  0  0  0  0
    3.5051   -0.2931    0.0000 C   0  0  0  0  0  0  0  0  0  0  0  0
  1  2  1  0  0  0  0
  2  3  2  0  0  0  0
  2  4  1  0  0  0  0
  4  5  1  0  0  0  0
  5  6  1  0  0  0  0
  6  7  1  0  0  0  0
  7  8  1  0  0  0  0
  8  9  1  0  0  0  0
  7 10  1  0  0  0  0
M  END
> <ChemID>
101088

> <CAS>
4435-53-4

> <Original_SMILES>
COC(C)CCOC(C)=O

> <preferred_name>
3-Methoxybutyl acetate

> <dsstox_substance_id>
DTXSID2052106

> <dsstox_compound_id>
DTXCID4030673

> <qc_level>
DSSTox_Low

> <Canonical_QSARr>
COC(C)CCOC(C)=O

> <InChI_Code_QSARr>
InChI=1S/C7H14O3/c1-6(9-3)4-5-10-7(2)8/h6H,4-5H2,1-3H3

> <InChI Key_QSARr>
QMYGFTJCQFEDST-UHFFFAOYSA-N

> <Salt_Solvent>


> <Salt_Solvent_ID>
0

> <MPID>
101073

> <Tr_1_Tst_0>
1

> <Ready_Biodeg>
1.0

$$$$
Row1044
  Mrv171c012251911052D          

 25 24  0  0  0  0            999 V2000
    9.9609    0.0015    0.0000 C   0  0  0  0  0  0  0  0  0  0  0  0
    9.2464   -0.4110    0.0000 C   0  0  0  0  0  0  0  0  0  0  0  0
    8.5319    0.0015    0.0000 O   0  0  0  0  0  0  0  0  0  0  0  0
    7.8174   -0.4110    0.0000 C   0  0  0  0  0  0  0  0  0  0  0  0
    7.1030    0.0015    0.0000 C   0  0  0  0  0  0  0  0  0  0  0  0
    6.3885   -0.4110    0.0000 C   0  0  0  0  0  0  0  0  0  0  0  0
    5.6740    0.0015    0.0000 C   0  0  0  0  0  0  0  0  0  0  0  0
    4.9596   -0.4110    0.0000 C   0  0  0  0  0  0  0  0  0  0  0  0
    4.2451    0.0015    0.0000 C   0  0  0  0  0  0  0  0  0  0  0  0
    3.5306   -0.4110    0.0000 C   0  0  0  0  0  0  0  0  0  0  0  0
    2.8162    0.0015    0.0000 C   0  0  0  0  0  0  0  0  0  0  0  0
    2.1017   -0.4110    0.0000 C   0  0  0  0  0  0  0  0  0  0  0  0
    1.3872    0.0015    0.0000 C   0  0  0  0  0  0  0  0  0  0  0  0
    0.6727   -0.4110    0.0000 C   0  0  0  0  0  0  0  0  0  0  0  0
   -0.0417    0.0015    0.0000 C   0  0  0  0  0  0  0  0  0  0  0  0
   10.6753   -0.4110    0.0000 C   0  0  0  0  0  0  0  0  0  0  0  0
   11.3898    0.0015    0.0000 C   0  0  0  0  0  0  0  0  0  0  0  0
   12.1043   -0.4110    0.0000 C   0  0  0  0  0  0  0  0  0  0  0  0
   12.8187    0.0015    0.0000 C   0  0  0  0  0  0  0  0  0  0  0  0
   13.5332   -0.4110    0.0000 C   0  0  0  0  0  0  0  0  0  0  0  0
   14.2477    0.0015    0.0000 C   0  0  0  0  0  0  0  0  0  0  0  0
   14.9622   -0.4110    0.0000 C   0  0  0  0  0  0  0  0  0  0  0  0
   15.6766    0.0015    0.0000 C   0  0  0  0  0  0  0  0  0  0  0  0
   16.3911   -0.4110    0.0000 C   0  0  0  0  0  0  0  0  0  0  0  0
   17.1056    0.0015    0.0000 C   0  0  0  0  0  0  0  0  0  0  0  0
  1  2  1  0  0  0  0
  2  3  1  0  0  0  0
  3  4  1  0  0  0  0
  4  5  1  0  0  0  0
  5  6  1  0  0  0  0
  6  7  1  0  0  0  0
  7  8  1  0  0  0  0
  8  9  1  0  0  0  0
  9 10  1  0  0  0  0
 10 11  1  0  0  0  0
 11 12  1  0  0  0  0
 12 13  1  0  0  0  0
 13 14  1  0  0  0  0
 14 15  1  0  0  0  0
  1 16  1  0  0  0  0
 16 17  1  0  0  0  0
 17 18  1  0  0  0  0
 18 19  1  0  0  0  0
 19 20  1  0  0  0  0
 20 21  1  0  0  0  0
 21 22  1  0  0  0  0
 22 23  1  0  0  0  0
 23 24  1  0  0  0  0
 24 25  1  0  0  0  0
M  END
> <ChemID>
101089

> <CAS>
4542-57-8

> <Original_SMILES>
CCCCCCCCCCCCOCCCCCCCCCCCC

> <preferred_name>
Didodecyl ether

> <dsstox_substance_id>
DTXSID5051494

> <dsstox_compound_id>
DTXCID4030677

> <qc_level>
DSSTox_Low

> <Canonical_QSARr>
CCCCCCCCCCCCOCCCCCCCCCCCC

> <InChI_Code_QSARr>
InChI=1S/C24H50O/c1-3-5-7-9-11-13-15-17-19-21-23-25-24-22-20-18-16-14-12-10-8-6-4-2/h3-24H2,1-2H3

> <InChI Key_QSARr>
CMCBDXRRFKYBDG-UHFFFAOYSA-N

> <Salt_Solvent>


> <Salt_Solvent_ID>
0

> <MPID>
101074

> <Tr_1_Tst_0>
0

> <Ready_Biodeg>
1.0

$$$$
Row1045
  Mrv171c012251911052D          

 10 10  0  0  0  0            999 V2000
    2.0080   -0.7510    0.0000 N   0  0  0  0  0  0  0  0  0  0  0  0
    1.2935   -0.3385    0.0000 C   0  0  0  0  0  0  0  0  0  0  0  0
    1.2935    0.4865    0.0000 Cl  0  0  0  0  0  0  0  0  0  0  0  0
    0.5791   -0.7510    0.0000 C   0  0  0  0  0  0  0  0  0  0  0  0
    0.5791   -1.5760    0.0000 C   0  0  0  0  0  0  0  0  0  0  0  0
    1.2935   -1.9885    0.0000 C   0  0  0  0  0  0  0  0  0  0  0  0
    2.0080   -1.5760    0.0000 C   0  0  0  0  0  0  0  0  0  0  0  0
    2.7225   -1.9885    0.0000 C   0  0  0  0  0  0  0  0  0  0  0  0
    3.4370   -1.5760    0.0000 O   0  0  0  0  0  0  0  0  0  0  0  0
    2.7225   -2.8135    0.0000 O   0  0  0  0  0  0  0  0  0  0  0  0
  2  1  1  0  0  0  0
  2  3  1  0  0  0  0
  4  2  2  0  0  0  0
  5  4  1  0  0  0  0
  6  5  2  0  0  0  0
  7  6  1  0  0  0  0
  1  7  2  0  0  0  0
  7  8  1  0  0  0  0
  8  9  1  0  0  0  0
  8 10  2  0  0  0  0
M  END
> <ChemID>
101090

> <CAS>
4684-94-0

> <Original_SMILES>
OC(=O)c1cccc(Cl)[n]1

> <preferred_name>
6-Chloro-2-picolinic acid

> <dsstox_substance_id>
DTXSID7040289

> <dsstox_compound_id>
DTXCID5020289

> <qc_level>
DSSTox_High

> <Canonical_QSARr>
OC(=O)C1C=CC=C(Cl)N=1

> <InChI_Code_QSARr>
InChI=1S/C6H4ClNO2/c7-5-3-1-2-4(8-5)6(9)10/h1-3H,(H,9,10)

> <InChI Key_QSARr>
ZLKMOIHCHCMSFW-UHFFFAOYSA-N

> <Salt_Solvent>


> <Salt_Solvent_ID>
0

> <MPID>
101075

> <Tr_1_Tst_0>
1

> <Ready_Biodeg>
0.0

$$$$
Row1046
  Mrv171c012251911052D          

 15 15  0  0  0  0            999 V2000
    3.3929   -3.8437    0.0000 C   0  0  0  0  0  0  0  0  0  0  0  0
    2.6784   -3.4312    0.0000 N   0  0  0  0  0  0  0  0  0  0  0  0
    2.6784   -2.6062    0.0000 C   0  0  0  0  0  0  0  0  0  0  0  0
    1.9640   -2.1937    0.0000 N   0  0  0  0  0  0  0  0  0  0  0  0
    1.9640   -1.3687    0.0000 C   0  0  0  0  0  0  0  0  0  0  0  0
    2.6784   -0.9562    0.0000 C   0  0  0  0  0  0  0  0  0  0  0  0
    2.6784   -0.1312    0.0000 O   0  0  0  0  0  0  0  0  0  0  0  0
    1.2495   -2.6062    0.0000 C   0  0  0  0  0  0  0  0  0  0  0  0
    1.2495   -3.4312    0.0000 N   0  0  0  0  0  0  0  0  0  0  0  0
    0.5350   -3.8437    0.0000 C   0  0  0  0  0  0  0  0  0  0  0  0
   -0.1795   -3.4312    0.0000 C   0  0  0  0  0  0  0  0  0  0  0  0
   -0.8939   -3.8437    0.0000 O   0  0  0  0  0  0  0  0  0  0  0  0
    1.9640   -3.8437    0.0000 C   0  0  0  0  0  0  0  0  0  0  0  0
    4.1074   -3.4312    0.0000 C   0  0  0  0  0  0  0  0  0  0  0  0
    4.8218   -3.8437    0.0000 O   0  0  0  0  0  0  0  0  0  0  0  0
  1  2  1  0  0  0  0
  3  2  1  0  0  0  0
  4  3  1  0  0  0  0
  4  5  1  0  0  0  0
  5  6  1  0  0  0  0
  6  7  1  0  0  0  0
  8  4  1  0  0  0  0
  9  8  1  0  0  0  0
  9 10  1  0  0  0  0
 10 11  1  0  0  0  0
 11 12  1  0  0  0  0
 13  9  1  0  0  0  0
  2 13  1  0  0  0  0
  1 14  1  0  0  0  0
 14 15  1  0  0  0  0
M  END
> <ChemID>
101091

> <CAS>
4719-04-4

> <Original_SMILES>
OCCN1CN(CN(C1)CCO)CCO

> <preferred_name>
1,3,5-Triazine-1,3,5(2H,4H,6H)-triethanol

> <dsstox_substance_id>
DTXSID7025394

> <dsstox_compound_id>
DTXCID405394

> <qc_level>
DSSTox_Low

> <Canonical_QSARr>
OCCN1CN(CN(C1)CCO)CCO

> <InChI_Code_QSARr>
InChI=1S/C9H21N3O3/c13-4-1-10-7-11(2-5-14)9-12(8-10)3-6-15/h13-15H,1-9H2

> <InChI Key_QSARr>
HUHGPYXAVBJSJV-UHFFFAOYSA-N

> <Salt_Solvent>


> <Salt_Solvent_ID>
0

> <MPID>
101076

> <Tr_1_Tst_0>
1

> <Ready_Biodeg>
1.0

$$$$
Row1047
  Mrv171c012251911052D          

 23 23  0  0  0  0            999 V2000
    1.8680   -2.4509    0.0000 C   0  0  0  0  0  0  0  0  0  0  0  0
    1.8680   -3.2759    0.0000 C   0  0  0  0  0  0  0  0  0  0  0  0
    2.5825   -3.6884    0.0000 C   0  0  0  0  0  0  0  0  0  0  0  0
    2.5825   -4.5134    0.0000 S   0  0  0  0  0  0  0  0  0  0  0  0
    2.5825   -5.3384    0.0000 C   0  0  0  0  0  0  0  0  0  0  0  0
    3.4075   -4.5134    0.0000 O   0  0  0  0  0  0  0  0  0  0  0  0
    1.7575   -4.5134    0.0000 O   0  0  0  0  0  0  0  0  0  0  0  0
    3.2970   -3.2759    0.0000 C   0  0  0  0  0  0  0  0  0  0  0  0
    3.2970   -2.4509    0.0000 C   0  0  0  0  0  0  0  0  0  0  0  0
    4.0114   -2.0384    0.0000 N   0  3  0  0  0  0  0  0  0  0  0  0
    4.0114   -1.2134    0.0000 O   0  0  0  0  0  0  0  0  0  0  0  0
    4.7259   -2.4509    0.0000 O   0  5  0  0  0  0  0  0  0  0  0  0
    2.5825   -2.0384    0.0000 C   0  0  0  0  0  0  0  0  0  0  0  0
    2.5825   -1.2134    0.0000 N   0  0  0  0  0  0  0  0  0  0  0  0
    1.8680   -0.8009    0.0000 C   0  0  0  0  0  0  0  0  0  0  0  0
    1.8680    0.0241    0.0000 C   0  0  0  0  0  0  0  0  0  0  0  0
    1.1535    0.4366    0.0000 C   0  0  0  0  0  0  0  0  0  0  0  0
    3.2970   -0.8009    0.0000 C   0  0  0  0  0  0  0  0  0  0  0  0
    3.2970    0.0241    0.0000 C   0  0  0  0  0  0  0  0  0  0  0  0
    4.0114    0.4366    0.0000 C   0  0  0  0  0  0  0  0  0  0  0  0
    1.1535   -2.0384    0.0000 N   0  3  0  0  0  0  0  0  0  0  0  0
    1.1535   -1.2134    0.0000 O   0  0  0  0  0  0  0  0  0  0  0  0
    0.4391   -2.4509    0.0000 O   0  5  0  0  0  0  0  0  0  0  0  0
  2  1  1  0  0  0  0
  3  2  2  0  0  0  0
  3  4  1  0  0  0  0
  4  5  1  0  0  0  0
  4  6  2  0  0  0  0
  4  7  2  0  0  0  0
  8  3  1  0  0  0  0
  9  8  2  0  0  0  0
  9 10  1  0  0  0  0
 10 11  2  0  0  0  0
 10 12  1  0  0  0  0
 13  9  1  0  0  0  0
  1 13  2  0  0  0  0
 13 14  1  0  0  0  0
 14 15  1  0  0  0  0
 15 16  1  0  0  0  0
 16 17  1  0  0  0  0
 14 18  1  0  0  0  0
 18 19  1  0  0  0  0
 19 20  1  0  0  0  0
  1 21  1  0  0  0  0
 21 22  2  0  0  0  0
 21 23  1  0  0  0  0
M  CHG  4  10   1  12  -1  21   1  23  -1
M  END
> <ChemID>
101092

> <CAS>
4726-14-1

> <Original_SMILES>
CS(=O)(=O)c1cc(c(c(c1)[N+]([O-])=O)N(CCC)CCC)[N+]([O-])=O

> <preferred_name>
Nitralin

> <dsstox_substance_id>
DTXSID9042203

> <dsstox_compound_id>
DTXCID7022203

> <qc_level>
DSSTox_Low

> <Canonical_QSARr>
CS(=O)(=O)C1=CC(=C(C(=C1)[N+]([O-])=O)N(CCC)CCC)[N+]([O-])=O

> <InChI_Code_QSARr>
InChI=1S/C13H19N3O6S/c1-4-6-14(7-5-2)13-11(15(17)18)8-10(23(3,21)22)9-12(13)16(19)20/h8-9H,4-7H2,1-3H3

> <InChI Key_QSARr>
UMKANAFDOQQUKE-UHFFFAOYSA-N

> <Salt_Solvent>


> <Salt_Solvent_ID>
0

> <MPID>
101077

> <Tr_1_Tst_0>
1

> <Ready_Biodeg>
0.0

$$$$
Row1048
  Mrv171c012251911052D          

 12 13  0  0  0  0            999 V2000
    0.0034   -1.2405    0.0000 C   0  0  0  0  0  0  0  0  0  0  0  0
    0.7179   -0.8280    0.0000 C   0  0  0  0  0  0  0  0  0  0  0  0
    1.4324   -1.2405    0.0000 C   0  0  0  0  0  0  0  0  0  0  0  0
    2.1469   -0.8280    0.0000 C   0  0  0  0  0  0  0  0  0  0  0  0
    2.8613   -1.2405    0.0000 N   0  0  0  0  0  0  0  0  0  0  0  0
    2.8613   -2.0655    0.0000 N   0  0  0  0  0  0  0  0  0  0  0  0
    2.1469   -2.4780    0.0000 C   0  0  0  0  0  0  0  0  0  0  0  0
    2.1469   -3.3030    0.0000 Cl  0  0  0  0  0  0  0  0  0  0  0  0
    1.4324   -2.0655    0.0000 C   0  0  0  0  0  0  0  0  0  0  0  0
    0.7179   -2.4780    0.0000 C   0  0  0  0  0  0  0  0  0  0  0  0
    0.0034   -2.0655    0.0000 C   0  0  0  0  0  0  0  0  0  0  0  0
    2.1469   -0.0030    0.0000 Cl  0  0  0  0  0  0  0  0  0  0  0  0
  2  1  1  0  0  0  0
  3  2  2  0  0  0  0
  3  4  1  0  0  0  0
  4  5  2  0  0  0  0
  5  6  1  0  0  0  0
  6  7  2  0  0  0  0
  7  8  1  0  0  0  0
  7  9  1  0  0  0  0
  9  3  1  0  0  0  0
 10  9  2  0  0  0  0
 11 10  1  0  0  0  0
  1 11  2  0  0  0  0
  4 12  1  0  0  0  0
M  END
> <ChemID>
101093

> <CAS>
4752-10-7

> <Original_SMILES>
Clc1[n][n]c(Cl)c2ccccc12

> <preferred_name>
1,4-Dichlorophthalazine

> <dsstox_substance_id>
DTXSID1049306

> <dsstox_compound_id>
DTXCID7029162

> <qc_level>
DSSTox_Low

> <Canonical_QSARr>
ClC1=NN=C(Cl)C2=CC=CC=C12

> <InChI_Code_QSARr>
InChI=1S/C8H4Cl2N2/c9-7-5-3-1-2-4-6(5)8(10)12-11-7/h1-4H

> <InChI Key_QSARr>
ODCNAEMHGMYADO-UHFFFAOYSA-N

> <Salt_Solvent>


> <Salt_Solvent_ID>
0

> <MPID>
101078

> <Tr_1_Tst_0>
0

> <Ready_Biodeg>
0.0

$$$$
Row1049
  Mrv171c012251911052D          

 12 12  0  0  0  0            999 V2000
    1.4289    0.8250    0.0000 C   0  0  0  0  0  0  0  0  0  0  0  0
    2.1434    1.2375    0.0000 C   0  0  0  0  0  0  0  0  0  0  0  0
    2.8579    0.8250    0.0000 C   0  0  0  0  0  0  0  0  0  0  0  0
    2.8579   -0.0000    0.0000 C   0  0  0  0  0  0  0  0  0  0  0  0
    2.1434   -0.4125    0.0000 C   0  0  0  0  0  0  0  0  0  0  0  0
    2.1434   -1.2375    0.0000 C   0  0  0  0  0  0  0  0  0  0  0  0
    1.4289   -1.6500    0.0000 C   0  0  0  0  0  0  0  0  0  0  0  0
    0.7145   -1.2375    0.0000 C   0  0  0  0  0  0  0  0  0  0  0  0
    0.7145   -0.4125    0.0000 C   0  0  0  0  0  0  0  0  0  0  0  0
   -0.0000    0.0000    0.0000 C   0  0  0  0  0  0  0  0  0  0  0  0
   -0.0000    0.8250    0.0000 C   0  0  0  0  0  0  0  0  0  0  0  0
    0.7145    1.2375    0.0000 C   0  0  0  0  0  0  0  0  0  0  0  0
  1  2  1  0  0  0  0
  3  2  1  4  0  0  0
  3  4  2  0  0  0  0
  4  5  1  0  0  0  0
  5  6  1  0  0  0  0
  7  6  1  4  0  0  0
  7  8  2  0  0  0  0
  8  9  1  0  0  0  0
  9 10  1  0  0  0  0
 11 10  1  4  0  0  0
 11 12  2  0  0  0  0
  1 12  1  0  0  0  0
M  END
> <ChemID>
101094

> <CAS>
4904-61-4

> <Original_SMILES>
C1CC=CCCC=CCCC=C1

> <preferred_name>
1,5,9-Cyclododecatriene

> <dsstox_substance_id>
DTXSID8027581

> <dsstox_compound_id>
DTXCID5065308

> <qc_level>
DSSTox_Low

> <Canonical_QSARr>
C1CC=CCCC=CCCC=C1

> <InChI_Code_QSARr>
InChI=1S/C12H18/c1-2-4-6-8-10-12-11-9-7-5-3-1/h1-2,7-10H,3-6,11-12H2/b2-1+,9-7+,10-8+

> <InChI Key_QSARr>
ZOLLIQAKMYWTBR-FFWAUJBHSA-N

> <Salt_Solvent>


> <Salt_Solvent_ID>
0

> <MPID>
101079

> <Tr_1_Tst_0>
1

> <Ready_Biodeg>
0.0

$$$$
Row1050
  Mrv171c012251911052D          

 12 13  0  0  0  0            999 V2000
    2.0597   -2.7775    0.0000 C   0  0  0  0  0  0  0  0  0  0  0  0
    2.7741   -2.3650    0.0000 C   0  0  0  0  0  0  0  0  0  0  0  0
    2.7741   -1.5400    0.0000 C   0  0  0  0  0  0  0  0  0  0  0  0
    2.0597   -1.1275    0.0000 C   0  0  0  0  0  0  0  0  0  0  0  0
    2.0597   -0.3025    0.0000 C   0  0  0  0  0  0  0  0  0  0  0  0
    2.7741    0.1100    0.0000 C   0  0  0  0  0  0  0  0  0  0  0  0
    2.7741    0.9350    0.0000 C   0  0  0  0  0  0  0  0  0  0  0  0
    2.0597    1.3475    0.0000 C   0  0  0  0  0  0  0  0  0  0  0  0
    1.3452    0.9350    0.0000 C   0  0  0  0  0  0  0  0  0  0  0  0
    1.3452    0.1100    0.0000 C   0  0  0  0  0  0  0  0  0  0  0  0
    1.3452   -1.5400    0.0000 C   0  0  0  0  0  0  0  0  0  0  0  0
    1.3452   -2.3650    0.0000 C   0  0  0  0  0  0  0  0  0  0  0  0
  2  1  1  0  0  0  0
  3  2  1  0  0  0  0
  4  3  1  0  0  0  0
  4  5  1  0  0  0  0
  6  5  1  0  0  0  0
  7  6  2  0  0  0  0
  8  7  1  0  0  0  0
  9  8  2  0  0  0  0
 10  9  1  0  0  0  0
  5 10  2  0  0  0  0
 11  4  1  0  0  0  0
 12 11  1  0  0  0  0
  1 12  2  0  0  0  0
M  END
> <ChemID>
101095

> <CAS>
4994-16-5

> <Original_SMILES>
C1C=CCCC1c1ccccc1

> <preferred_name>
4-Phenyl-1-cyclohexene

> <dsstox_substance_id>
DTXSID9047176

> <dsstox_compound_id>
DTXCID7027176

> <qc_level>
DSSTox_Low

> <Canonical_QSARr>
C1C=CCCC1C1C=CC=CC=1

> <InChI_Code_QSARr>
InChI=1S/C12H14/c1-3-7-11(8-4-1)12-9-5-2-6-10-12/h1-5,7-8,12H,6,9-10H2

> <InChI Key_QSARr>
XWCWNUSFQVJNDI-UHFFFAOYSA-N

> <Salt_Solvent>


> <Salt_Solvent_ID>
0

> <MPID>
101080

> <Tr_1_Tst_0>
1

> <Ready_Biodeg>
1.0

$$$$
Row1051
  Mrv171c012251911052D          

 26 28  0  0  0  0            999 V2000
    4.3229   -4.4937    0.0000 C   0  0  0  0  0  0  0  0  0  0  0  0
    3.6085   -4.0812    0.0000 N   0  0  0  0  0  0  0  0  0  0  0  0
    3.6085   -3.2562    0.0000 S   0  0  0  0  0  0  0  0  0  0  0  0
    3.6085   -2.4312    0.0000 C   0  0  0  0  0  0  0  0  0  0  0  0
    2.8940   -2.0187    0.0000 C   0  0  0  0  0  0  0  0  0  0  0  0
    2.8940   -1.1937    0.0000 C   0  0  0  0  0  0  0  0  0  0  0  0
    3.6085   -0.7812    0.0000 C   0  0  0  0  0  0  0  0  0  0  0  0
    3.6085    0.0438    0.0000 N   0  0  0  0  0  0  0  0  0  0  0  0
    2.8940    0.4563    0.0000 C   0  0  0  0  0  0  0  0  0  0  0  0
    2.8940    1.2813    0.0000 C   0  0  0  0  0  0  0  0  0  0  0  0
    2.1795    1.6938    0.0000 C   0  0  0  0  0  0  0  0  0  0  0  0
    1.4650    1.2813    0.0000 C   0  0  0  0  0  0  0  0  0  0  0  0
    1.4650    0.4563    0.0000 C   0  0  0  0  0  0  0  0  0  0  0  0
    2.1795    0.0438    0.0000 C   0  0  0  0  0  0  0  0  0  0  0  0
    4.3229   -1.1937    0.0000 C   0  0  0  0  0  0  0  0  0  0  0  0
    5.0374   -0.7812    0.0000 N   0  3  0  0  0  0  0  0  0  0  0  0
    5.7519   -1.1937    0.0000 O   0  0  0  0  0  0  0  0  0  0  0  0
    5.0374    0.0438    0.0000 O   0  5  0  0  0  0  0  0  0  0  0  0
    4.3229   -2.0187    0.0000 C   0  0  0  0  0  0  0  0  0  0  0  0
    2.7835   -3.2562    0.0000 O   0  0  0  0  0  0  0  0  0  0  0  0
    4.4335   -3.2562    0.0000 O   0  0  0  0  0  0  0  0  0  0  0  0
    4.3229   -5.3187    0.0000 C   0  0  0  0  0  0  0  0  0  0  0  0
    5.0374   -5.7312    0.0000 C   0  0  0  0  0  0  0  0  0  0  0  0
    5.7519   -5.3187    0.0000 C   0  0  0  0  0  0  0  0  0  0  0  0
    5.7519   -4.4937    0.0000 C   0  0  0  0  0  0  0  0  0  0  0  0
    5.0374   -4.0812    0.0000 C   0  0  0  0  0  0  0  0  0  0  0  0
  1  2  1  0  0  0  0
  2  3  1  0  0  0  0
  3  4  1  0  0  0  0
  5  4  2  0  0  0  0
  6  5  1  0  0  0  0
  7  6  2  0  0  0  0
  7  8  1  0  0  0  0
  8  9  1  0  0  0  0
 10  9  2  0  0  0  0
 11 10  1  0  0  0  0
 12 11  2  0  0  0  0
 13 12  1  0  0  0  0
 14 13  2  0  0  0  0
  9 14  1  0  0  0  0
 15  7  1  0  0  0  0
 15 16  1  0  0  0  0
 16 17  2  0  0  0  0
 16 18  1  0  0  0  0
 19 15  2  0  0  0  0
  4 19  1  0  0  0  0
  3 20  2  0  0  0  0
  3 21  2  0  0  0  0
 22  1  2  0  0  0  0
 23 22  1  0  0  0  0
 24 23  2  0  0  0  0
 25 24  1  0  0  0  0
 26 25  2  0  0  0  0
  1 26  1  0  0  0  0
M  CHG  2  16   1  18  -1
M  END
> <ChemID>
101096

> <CAS>
5124-25-4

> <Original_SMILES>
[O-][N+](=O)c1cc(ccc1Nc1ccccc1)S(=O)(=O)Nc1ccccc1

> <preferred_name>
C.I.Disperse Yellow 42

> <dsstox_substance_id>
DTXSID8052148

> <dsstox_compound_id>
DTXCID3030717

> <qc_level>
DSSTox_Low

> <Canonical_QSARr>
[O-][N+](=O)C1=CC(=CC=C1NC1C=CC=CC=1)S(=O)(=O)NC1C=CC=CC=1

> <InChI_Code_QSARr>
InChI=1S/C18H15N3O4S/c22-21(23)18-13-16(26(24,25)20-15-9-5-2-6-10-15)11-12-17(18)19-14-7-3-1-4-8-14/h1-13,19-20H

> <InChI Key_QSARr>
BBFRYSKTTHYWQZ-UHFFFAOYSA-N

> <Salt_Solvent>


> <Salt_Solvent_ID>
0

> <MPID>
101081

> <Tr_1_Tst_0>
1

> <Ready_Biodeg>
0.0

$$$$
Row1052
  Mrv171c012251911052D          

  9  8  0  0  0  0            999 V2000
    3.1588   -0.0025    0.0000 C   0  0  0  0  0  0  0  0  0  0  0  0
    2.4443   -0.4150    0.0000 O   0  0  0  0  0  0  0  0  0  0  0  0
    1.7298   -0.0025    0.0000 C   0  0  0  0  0  0  0  0  0  0  0  0
    1.0153   -0.4150    0.0000 C   0  0  0  0  0  0  0  0  0  0  0  0
    0.3009   -0.0025    0.0000 C   0  0  0  0  0  0  0  0  0  0  0  0
   -0.4136   -0.4150    0.0000 C   0  0  0  0  0  0  0  0  0  0  0  0
    3.8732   -0.4150    0.0000 C   0  0  0  0  0  0  0  0  0  0  0  0
    4.5877   -0.0025    0.0000 O   0  0  0  0  0  0  0  0  0  0  0  0
    3.8732   -1.2400    0.0000 C   0  0  0  0  0  0  0  0  0  0  0  0
  1  2  1  0  0  0  0
  2  3  1  0  0  0  0
  3  4  1  0  0  0  0
  4  5  1  0  0  0  0
  5  6  1  0  0  0  0
  1  7  1  0  0  0  0
  7  8  1  0  0  0  0
  7  9  1  0  0  0  0
M  END
> <ChemID>
101097

> <CAS>
5131-66-8

> <Original_SMILES>
CCCCOCC(C)O

> <preferred_name>
1-Butoxy-2-propanol

> <dsstox_substance_id>
DTXSID8027589

> <dsstox_compound_id>
DTXCID707589

> <qc_level>
DSSTox_Low

> <Canonical_QSARr>
CCCCOCC(C)O

> <InChI_Code_QSARr>
InChI=1S/C7H16O2/c1-3-4-5-9-6-7(2)8/h7-8H,3-6H2,1-2H3

> <InChI Key_QSARr>
RWNUSVWFHDHRCJ-UHFFFAOYSA-N

> <Salt_Solvent>


> <Salt_Solvent_ID>
0

> <MPID>
101082

> <Tr_1_Tst_0>
0

> <Ready_Biodeg>
1.0

$$$$
Row1053
  Mrv171c012251911052D          

 16 17  0  0  0  0            999 V2000
    3.0373   -2.1126    0.0000 C   0  0  0  0  0  0  0  0  0  0  0  0
    3.0373   -2.9376    0.0000 S   0  0  0  0  0  0  0  0  0  0  0  0
    3.7518   -3.3501    0.0000 C   0  0  0  0  0  0  0  0  0  0  0  0
    4.4662   -2.9376    0.0000 C   0  0  0  0  0  0  0  0  0  0  0  0
    4.4662   -2.1126    0.0000 O   0  0  0  0  0  0  0  0  0  0  0  0
    3.7518   -1.7001    0.0000 C   0  0  0  0  0  0  0  0  0  0  0  0
    3.7518   -0.8751    0.0000 C   0  0  0  0  0  0  0  0  0  0  0  0
    2.3228   -1.7001    0.0000 C   0  0  0  0  0  0  0  0  0  0  0  0
    1.6084   -2.1126    0.0000 O   0  0  0  0  0  0  0  0  0  0  0  0
    2.3228   -0.8751    0.0000 N   0  0  0  0  0  0  0  0  0  0  0  0
    1.6084   -0.4626    0.0000 C   0  0  0  0  0  0  0  0  0  0  0  0
    1.6084    0.3624    0.0000 C   0  0  0  0  0  0  0  0  0  0  0  0
    0.8939    0.7749    0.0000 C   0  0  0  0  0  0  0  0  0  0  0  0
    0.1794    0.3624    0.0000 C   0  0  0  0  0  0  0  0  0  0  0  0
    0.1794   -0.4626    0.0000 C   0  0  0  0  0  0  0  0  0  0  0  0
    0.8939   -0.8751    0.0000 C   0  0  0  0  0  0  0  0  0  0  0  0
  2  1  1  0  0  0  0
  3  2  1  0  0  0  0
  4  3  1  0  0  0  0
  5  4  1  0  0  0  0
  6  5  1  0  0  0  0
  1  6  2  0  0  0  0
  6  7  1  0  0  0  0
  1  8  1  0  0  0  0
  8  9  2  0  0  0  0
  8 10  1  0  0  0  0
 10 11  1  0  0  0  0
 12 11  2  0  0  0  0
 13 12  1  0  0  0  0
 14 13  2  0  0  0  0
 15 14  1  0  0  0  0
 16 15  2  0  0  0  0
 11 16  1  0  0  0  0
M  END
> <ChemID>
101098

> <CAS>
5234-68-4

> <Original_SMILES>
CC1OCCSC=1C(=O)Nc1ccccc1

> <preferred_name>
Carboxin

> <dsstox_substance_id>
DTXSID0023951

> <dsstox_compound_id>
DTXCID003951

> <qc_level>
DSSTox_Low

> <Canonical_QSARr>
CC1OCCSC=1C(=O)NC1C=CC=CC=1

> <InChI_Code_QSARr>
InChI=1S/C12H13NO2S/c1-9-11(16-8-7-15-9)12(14)13-10-5-3-2-4-6-10/h2-6H,7-8H2,1H3,(H,13,14)

> <InChI Key_QSARr>
GYSSRZJIHXQEHQ-UHFFFAOYSA-N

> <Salt_Solvent>


> <Salt_Solvent_ID>
0

> <MPID>
101083

> <Tr_1_Tst_0>
1

> <Ready_Biodeg>
1.0

$$$$
Row1054
  Mrv171c012251911052D          

  9  9  0  0  0  0            999 V2000
    3.2377   -2.0987    0.0000 Cl  0  0  0  0  0  0  0  0  0  0  0  0
    3.2377   -1.2737    0.0000 C   0  0  0  0  0  0  0  0  0  0  0  0
    3.9522   -0.8612    0.0000 C   0  0  0  0  0  0  0  0  0  0  0  0
    3.9522   -0.0362    0.0000 C   0  0  0  0  0  0  0  0  0  0  0  0
    3.2377    0.3763    0.0000 C   0  0  0  0  0  0  0  0  0  0  0  0
    3.2377    1.2013    0.0000 C   0  0  0  0  0  0  0  0  0  0  0  0
    2.5233   -0.0362    0.0000 C   0  0  0  0  0  0  0  0  0  0  0  0
    1.8088    0.3763    0.0000 O   0  0  0  0  0  0  0  0  0  0  0  0
    2.5233   -0.8612    0.0000 C   0  0  0  0  0  0  0  0  0  0  0  0
  1  2  1  0  0  0  0
  3  2  1  0  0  0  0
  4  3  2  0  0  0  0
  5  4  1  0  0  0  0
  5  6  1  0  0  0  0
  7  5  2  0  0  0  0
  7  8  1  0  0  0  0
  9  7  1  0  0  0  0
  2  9  2  0  0  0  0
M  END
> <ChemID>
101099

> <CAS>
5306-98-9

> <Original_SMILES>
Cc1ccc(Cl)cc1O

> <preferred_name>
5-Chloro-o-cresol

> <dsstox_substance_id>
DTXSID50201126

> <dsstox_compound_id>
DTXCID50123617

> <qc_level>
Public_Medium

> <Canonical_QSARr>
CC1C=CC(Cl)=CC=1O

> <InChI_Code_QSARr>
InChI=1S/C7H7ClO/c1-5-2-3-6(8)4-7(5)9/h2-4,9H,1H3

> <InChI Key_QSARr>
KKFPXGXMSBBNJI-UHFFFAOYSA-N

> <Salt_Solvent>


> <Salt_Solvent_ID>
0

> <MPID>
101084

> <Tr_1_Tst_0>
1

> <Ready_Biodeg>
0.0

$$$$
Row1055
  Mrv171c012251911052D          

 12 13  0  0  0  0            999 V2000
    0.0646    0.3112    0.0000 C   0  0  0  0  0  0  0  0  0  0  0  0
   -0.7200    0.5661    0.0000 C   0  0  0  0  0  0  0  0  0  0  0  0
   -0.9749    1.3507    0.0000 O   0  0  0  0  0  0  0  0  0  0  0  0
   -1.2049   -0.1013    0.0000 O   0  0  0  0  0  0  0  0  0  0  0  0
   -0.7200   -0.7688    0.0000 C   0  0  0  0  0  0  0  0  0  0  0  0
   -0.9749   -1.5534    0.0000 O   0  0  0  0  0  0  0  0  0  0  0  0
    0.0646   -0.5138    0.0000 C   0  0  0  0  0  0  0  0  0  0  0  0
    0.7791   -0.9263    0.0000 C   0  0  0  0  0  0  0  0  0  0  0  0
    1.4936   -0.5138    0.0000 C   0  0  0  0  0  0  0  0  0  0  0  0
    1.4936    0.3112    0.0000 C   0  0  0  0  0  0  0  0  0  0  0  0
    0.7791    0.7237    0.0000 C   0  0  0  0  0  0  0  0  0  0  0  0
    0.7791    1.5487    0.0000 C   0  0  0  0  0  0  0  0  0  0  0  0
  2  1  1  0  0  0  0
  2  3  2  0  0  0  0
  4  2  1  0  0  0  0
  5  4  1  0  0  0  0
  5  6  2  0  0  0  0
  7  5  1  0  0  0  0
  7  1  1  0  0  0  0
  8  7  1  0  0  0  0
  9  8  1  0  0  0  0
 10  9  2  0  0  0  0
 11 10  1  0  0  0  0
  1 11  1  0  0  0  0
 11 12  1  0  0  0  0
M  END
> <ChemID>
101100

> <CAS>
5333-84-6

> <Original_SMILES>
CC1C=CCC2C1C(=O)OC2=O

> <preferred_name>
3a,4,7,7a-Tetrahydro-4-methyl-1,3-isobenzofurandione

> <dsstox_substance_id>
DTXSID6058710

> <dsstox_compound_id>
DTXCID8030504

> <qc_level>
DSSTox_High

> <Canonical_QSARr>
CC1C=CCC2C1C(=O)OC2=O

> <InChI_Code_QSARr>
InChI=1S/C9H10O3/c1-5-3-2-4-6-7(5)9(11)12-8(6)10/h2-3,5-7H,4H2,1H3

> <InChI Key_QSARr>
XPEKVUUBSDFMDR-UHFFFAOYSA-N

> <Salt_Solvent>


> <Salt_Solvent_ID>
0

> <MPID>
101085

> <Tr_1_Tst_0>
1

> <Ready_Biodeg>
0.0

$$$$
Row1056
  Mrv171c012251911052D          

 11 10  0  0  0  0            999 V2000
    3.7125    2.1434    0.0000 C   0  0  0  0  0  0  0  0  0  0  0  0
    3.3000    1.4289    0.0000 C   0  0  0  0  0  0  0  0  0  0  0  0
    3.7125    0.7145    0.0000 C   0  0  0  0  0  0  0  0  0  0  0  0
    2.4750    1.4289    0.0000 C   0  0  0  0  0  0  0  0  0  0  0  0
    2.0625    0.7145    0.0000 C   0  0  0  0  0  0  0  0  0  0  0  0
    1.2375    0.7145    0.0000 C   0  0  0  0  0  0  0  0  0  0  0  0
    0.8250    0.0000    0.0000 C   0  0  0  0  0  0  0  0  0  0  0  0
    1.2375   -0.7145    0.0000 C   0  0  0  0  0  0  0  0  0  0  0  0
    0.0000    0.0000    0.0000 C   0  0  0  0  0  0  0  0  0  0  0  0
   -0.4125   -0.7145    0.0000 C   0  0  0  0  0  0  0  0  0  0  0  0
    0.0000   -1.4289    0.0000 O   0  0  0  0  0  0  0  0  0  0  0  0
  1  2  1  0  0  0  0
  2  3  1  0  0  0  0
  2  4  2  0  0  0  0
  4  5  1  0  0  0  0
  5  6  1  0  0  0  0
  6  7  1  0  0  0  0
  7  8  1  0  0  0  0
  7  9  2  0  0  0  0
  9 10  1  4  0  0  0
 10 11  2  0  0  0  0
M  END
> <ChemID>
101101

> <CAS>
5392-40-5

> <Original_SMILES>
CC(C)=CCCC(C)=CC=O

> <preferred_name>
3,7-Dimethyl-2,6-octadienal

> <dsstox_substance_id>
DTXSID6024836

> <dsstox_compound_id>
DTXCID304836

> <qc_level>
DSSTox_High

> <Canonical_QSARr>
CC(C)=CCCC(C)=CC=O

> <InChI_Code_QSARr>
InChI=1S/C10H16O/c1-9(2)5-4-6-10(3)7-8-11/h5,7-8H,4,6H2,1-3H3

> <InChI Key_QSARr>
WTEVQBCEXWBHNA-UHFFFAOYSA-N

> <Salt_Solvent>


> <Salt_Solvent_ID>
0

> <MPID>
101086

> <Tr_1_Tst_0>
0

> <Ready_Biodeg>
1.0

$$$$
Row1057
  Mrv171c012251911052D          

 11 11  0  0  0  0            999 V2000
    1.6887   -0.9000    0.0000 O   0  0  0  0  0  0  0  0  0  0  0  0
    1.6887   -0.0750    0.0000 N   0  3  0  0  0  0  0  0  0  0  0  0
    0.9743    0.3375    0.0000 C   0  0  0  0  0  0  0  0  0  0  0  0
    0.9743    1.1625    0.0000 C   0  0  0  0  0  0  0  0  0  0  0  0
    0.2598    1.5750    0.0000 C   0  0  0  0  0  0  0  0  0  0  0  0
    0.2598    2.4000    0.0000 O   0  0  0  0  0  0  0  0  0  0  0  0
   -0.4547    1.1625    0.0000 C   0  0  0  0  0  0  0  0  0  0  0  0
   -1.1691    1.5750    0.0000 C   0  0  0  0  0  0  0  0  0  0  0  0
   -0.4547    0.3375    0.0000 C   0  0  0  0  0  0  0  0  0  0  0  0
    0.2598   -0.0750    0.0000 C   0  0  0  0  0  0  0  0  0  0  0  0
    2.4032    0.3375    0.0000 O   0  5  0  0  0  0  0  0  0  0  0  0
  1  2  2  0  0  0  0
  2  3  1  0  0  0  0
  4  3  1  0  0  0  0
  5  4  2  0  0  0  0
  5  6  1  0  0  0  0
  7  5  1  0  0  0  0
  7  8  1  0  0  0  0
  9  7  2  0  0  0  0
 10  9  1  0  0  0  0
  3 10  2  0  0  0  0
  2 11  1  0  0  0  0
M  CHG  2   2   1  11  -1
M  END
> <ChemID>
101102

> <CAS>
5428-54-6

> <Original_SMILES>
Cc1ccc(cc1O)[N+]([O-])=O

> <preferred_name>
Phenol, 2-methyl-5-nitro-

> <dsstox_substance_id>
DTXSID4063874

> <dsstox_compound_id>
DTXCID3041661

> <qc_level>
Public_High

> <Canonical_QSARr>
CC1=CC=C(C=C1O)[N+]([O-])=O

> <InChI_Code_QSARr>
InChI=1S/C7H7NO3/c1-5-2-3-6(8(10)11)4-7(5)9/h2-4,9H,1H3

> <InChI Key_QSARr>
UMFDLIXUUJMPSI-UHFFFAOYSA-N

> <Salt_Solvent>


> <Salt_Solvent_ID>
0

> <MPID>
101087

> <Tr_1_Tst_0>
1

> <Ready_Biodeg>
0.0

$$$$
Row1058
  Mrv171c012251911052D          

 15 15  0  0  0  0            999 V2000
    3.0517   -0.9337    0.0000 C   0  0  0  0  0  0  0  0  0  0  0  0
    2.3372   -0.5212    0.0000 C   0  0  0  0  0  0  0  0  0  0  0  0
    2.3372    0.3038    0.0000 C   0  0  0  0  0  0  0  0  0  0  0  0
    3.0517    0.7163    0.0000 C   0  0  0  0  0  0  0  0  0  0  0  0
    1.6227    0.7163    0.0000 C   0  0  0  0  0  0  0  0  0  0  0  0
    1.6227    1.5413    0.0000 C   0  0  0  0  0  0  0  0  0  0  0  0
    1.6227   -0.9337    0.0000 C   0  0  0  0  0  0  0  0  0  0  0  0
    1.6227   -1.7587    0.0000 C   0  0  0  0  0  0  0  0  0  0  0  0
    2.3372   -2.1712    0.0000 C   0  0  0  0  0  0  0  0  0  0  0  0
    3.0517   -1.7587    0.0000 C   0  0  0  0  0  0  0  0  0  0  0  0
    3.7661   -2.1712    0.0000 C   0  0  0  0  0  0  0  0  0  0  0  0
    4.4806   -1.7587    0.0000 C   0  0  0  0  0  0  0  0  0  0  0  0
    3.7661   -2.9962    0.0000 C   0  0  0  0  0  0  0  0  0  0  0  0
    4.4806   -3.4087    0.0000 C   0  0  0  0  0  0  0  0  0  0  0  0
    3.7661   -0.5212    0.0000 O   0  0  0  0  0  0  0  0  0  0  0  0
  2  1  1  0  0  0  0
  2  3  1  0  0  0  0
  3  4  1  0  0  0  0
  3  5  1  0  0  0  0
  5  6  1  0  0  0  0
  7  2  2  0  0  0  0
  8  7  1  0  0  0  0
  9  8  2  0  0  0  0
 10  9  1  0  0  0  0
  1 10  2  0  0  0  0
 10 11  1  0  0  0  0
 11 12  1  0  0  0  0
 11 13  1  0  0  0  0
 13 14  1  0  0  0  0
  1 15  1  0  0  0  0
M  END
> <ChemID>
101103

> <CAS>
5510-99-6

> <Original_SMILES>
CC(CC)c1cccc(C(C)CC)c1O

> <preferred_name>
2,6-Di(butan-2-yl)phenol

> <dsstox_substance_id>
DTXSID0044440

> <dsstox_compound_id>
DTXCID8024440

> <qc_level>
DSSTox_Low

> <Canonical_QSARr>
CC(CC)C1=CC=CC(C(C)CC)=C1O

> <InChI_Code_QSARr>
InChI=1S/C14H22O/c1-5-10(3)12-8-7-9-13(14(12)15)11(4)6-2/h7-11,15H,5-6H2,1-4H3

> <InChI Key_QSARr>
FHTGJZOULSYEOB-UHFFFAOYSA-N

> <Salt_Solvent>


> <Salt_Solvent_ID>
0

> <MPID>
101088

> <Tr_1_Tst_0>
1

> <Ready_Biodeg>
0.0

$$$$
Row1059
  Mrv171c012251911052D          

 18 18  0  0  0  0            999 V2000
   -0.3969   -3.3000    0.0000 O   0  0  0  0  0  0  0  0  0  0  0  0
   -0.3969   -2.4750    0.0000 S   0  0  0  0  0  0  0  0  0  0  0  0
   -0.3969   -1.6500    0.0000 C   0  0  0  0  0  0  0  0  0  0  0  0
    0.3175   -1.2375    0.0000 C   0  0  0  0  0  0  0  0  0  0  0  0
    0.3175   -0.4125    0.0000 N   0  0  0  0  0  0  0  0  0  0  0  0
    1.0320    0.0000    0.0000 C   0  0  0  0  0  0  0  0  0  0  0  0
    1.0320    0.8250    0.0000 C   0  0  0  0  0  0  0  0  0  0  0  0
    0.3175    1.2375    0.0000 N   0  0  0  0  0  0  0  0  0  0  0  0
    0.3175    2.0625    0.0000 C   0  0  0  0  0  0  0  0  0  0  0  0
    1.0320    2.4750    0.0000 C   0  0  0  0  0  0  0  0  0  0  0  0
    1.0320    3.3000    0.0000 S   0  0  0  0  0  0  0  0  0  0  0  0
    1.0320    4.1250    0.0000 O   0  0  0  0  0  0  0  0  0  0  0  0
    1.8570    3.3000    0.0000 O   0  0  0  0  0  0  0  0  0  0  0  0
    0.2070    3.3000    0.0000 O   0  0  0  0  0  0  0  0  0  0  0  0
   -0.3969    0.8250    0.0000 C   0  0  0  0  0  0  0  0  0  0  0  0
   -0.3969   -0.0000    0.0000 C   0  0  0  0  0  0  0  0  0  0  0  0
    0.4281   -2.4750    0.0000 O   0  0  0  0  0  0  0  0  0  0  0  0
   -1.2219   -2.4750    0.0000 O   0  0  0  0  0  0  0  0  0  0  0  0
  1  2  2  0  0  0  0
  2  3  1  0  0  0  0
  3  4  1  0  0  0  0
  4  5  1  0  0  0  0
  6  5  1  0  0  0  0
  7  6  1  0  0  0  0
  8  7  1  0  0  0  0
  8  9  1  0  0  0  0
  9 10  1  0  0  0  0
 10 11  1  0  0  0  0
 11 12  1  0  0  0  0
 11 13  2  0  0  0  0
 11 14  2  0  0  0  0
 15  8  1  0  0  0  0
 16 15  1  0  0  0  0
  5 16  1  0  0  0  0
  2 17  1  0  0  0  0
  2 18  2  0  0  0  0
M  END
> <ChemID>
101105

> <CAS>
5625-37-6

> <Original_SMILES>
OS(=O)(=O)CCN1CCN(CC1)CCS(O)(=O)=O

> <preferred_name>
1,4-Piperazinediethanesulfonic acid

> <dsstox_substance_id>
DTXSID8063965

> <dsstox_compound_id>
DTXCID5042035

> <qc_level>
Public_High

> <Canonical_QSARr>
OS(=O)(=O)CCN1CCN(CC1)CCS(O)(=O)=O

> <InChI_Code_QSARr>
InChI=1S/C8H18N2O6S2/c11-17(12,13)7-5-9-1-2-10(4-3-9)6-8-18(14,15)16/h1-8H2,(H,11,12,13)(H,14,15,16)

> <InChI Key_QSARr>
IHPYMWDTONKSCO-UHFFFAOYSA-N

> <Salt_Solvent>


> <Salt_Solvent_ID>
0

> <MPID>
101089

> <Tr_1_Tst_0>
1

> <Ready_Biodeg>
0.0

$$$$
Row1060
  Mrv171c012251911052D          

 15 14  0  0  0  0            999 V2000
    2.0930    0.4125    0.0000 O   0  0  0  0  0  0  0  0  0  0  0  0
    2.8075   -0.0000    0.0000 C   0  0  0  0  0  0  0  0  0  0  0  0
    3.5220    0.4125    0.0000 C   0  0  0  0  0  0  0  0  0  0  0  0
    4.2364   -0.0000    0.0000 C   0  0  0  0  0  0  0  0  0  0  0  0
    4.9509    0.4125    0.0000 C   0  0  0  0  0  0  0  0  0  0  0  0
    5.6654   -0.0000    0.0000 C   0  0  0  0  0  0  0  0  0  0  0  0
    6.3798    0.4125    0.0000 C   0  0  0  0  0  0  0  0  0  0  0  0
    7.0943   -0.0000    0.0000 C   0  0  0  0  0  0  0  0  0  0  0  0
    7.8088    0.4125    0.0000 C   0  0  0  0  0  0  0  0  0  0  0  0
    8.5233   -0.0000    0.0000 C   0  0  0  0  0  0  0  0  0  0  0  0
    9.2377    0.4125    0.0000 C   0  0  0  0  0  0  0  0  0  0  0  0
    9.9522   -0.0000    0.0000 C   0  0  0  0  0  0  0  0  0  0  0  0
   10.6667    0.4125    0.0000 C   0  0  0  0  0  0  0  0  0  0  0  0
   11.3811    0.8250    0.0000 N   0  0  0  0  0  0  0  0  0  0  0  0
    2.8075   -0.8250    0.0000 O   0  0  0  0  0  0  0  0  0  0  0  0
  1  2  1  0  0  0  0
  2  3  1  0  0  0  0
  3  4  1  0  0  0  0
  4  5  1  0  0  0  0
  5  6  1  0  0  0  0
  6  7  1  0  0  0  0
  7  8  1  0  0  0  0
  8  9  1  0  0  0  0
  9 10  1  0  0  0  0
 10 11  1  0  0  0  0
 11 12  1  0  0  0  0
 12 13  1  0  0  0  0
 13 14  3  0  0  0  0
  2 15  2  0  0  0  0
M  END
> <ChemID>
101107

> <CAS>
5810-18-4

> <Original_SMILES>
N#CCCCCCCCCCCC(O)=O

> <preferred_name>
11-Cyanoundecanoic acid

> <dsstox_substance_id>
DTXSID40206827

> <dsstox_compound_id>
DTXCID70129318

> <qc_level>
Public_Medium

> <Canonical_QSARr>
N#CCCCCCCCCCCC(O)=O

> <InChI_Code_QSARr>
InChI=1S/C12H21NO2/c13-11-9-7-5-3-1-2-4-6-8-10-12(14)15/h1-10H2,(H,14,15)

> <InChI Key_QSARr>
YKHZGLKQBYTRHO-UHFFFAOYSA-N

> <Salt_Solvent>


> <Salt_Solvent_ID>
0

> <MPID>
101091

> <Tr_1_Tst_0>
0

> <Ready_Biodeg>
1.0

$$$$
Row1061
  Mrv171c012251911052D          

 14 14  0  0  0  0            999 V2000
    0.8791    0.1631    0.0000 N   0  0  0  0  0  0  0  0  0  0  0  0
    0.1647    0.5756    0.0000 C   0  0  0  0  0  0  0  0  0  0  0  0
    0.1647    1.4006    0.0000 O   0  0  0  0  0  0  0  0  0  0  0  0
   -0.5498    0.1631    0.0000 N   0  0  0  0  0  0  0  0  0  0  0  0
   -1.2643    0.5756    0.0000 C   0  0  0  0  0  0  0  0  0  0  0  0
   -1.9788    0.9881    0.0000 C   0  0  0  0  0  0  0  0  0  0  0  0
   -1.6768   -0.1389    0.0000 C   0  0  0  0  0  0  0  0  0  0  0  0
   -0.8518    1.2901    0.0000 C   0  0  0  0  0  0  0  0  0  0  0  0
   -0.5498   -0.6619    0.0000 C   0  0  0  0  0  0  0  0  0  0  0  0
   -1.2643   -1.0744    0.0000 O   0  0  0  0  0  0  0  0  0  0  0  0
    0.1647   -1.0744    0.0000 C   0  0  0  0  0  0  0  0  0  0  0  0
    0.1647   -1.8994    0.0000 Cl  0  0  0  0  0  0  0  0  0  0  0  0
    0.8791   -0.6619    0.0000 C   0  0  0  0  0  0  0  0  0  0  0  0
    1.5936   -1.0744    0.0000 C   0  0  0  0  0  0  0  0  0  0  0  0
  2  1  1  0  0  0  0
  2  3  2  0  0  0  0
  4  2  1  0  0  0  0
  4  5  1  0  0  0  0
  5  6  1  0  0  0  0
  5  7  1  0  0  0  0
  5  8  1  0  0  0  0
  9  4  1  0  0  0  0
  9 10  2  0  0  0  0
 11  9  1  0  0  0  0
 11 12  1  0  0  0  0
 13 11  1  0  0  0  0
  1 13  2  0  0  0  0
 13 14  1  0  0  0  0
M  END
> <ChemID>
101108

> <CAS>
5902-51-2

> <Original_SMILES>
CC1NC(=O)N(C(=O)C=1Cl)C(C)(C)C

> <preferred_name>
Terbacil

> <dsstox_substance_id>
DTXSID8024317

> <dsstox_compound_id>
DTXCID104317

> <qc_level>
DSSTox_Low

> <Canonical_QSARr>
CC1=NC(=O)N(C(=O)C1Cl)C(C)(C)C

> <InChI_Code_QSARr>
InChI=1S/C9H13ClN2O2/c1-5-6(10)7(13)12(8(14)11-5)9(2,3)4/h6H,1-4H3

> <InChI Key_QSARr>
FNEQOVOLKIIMTA-UHFFFAOYSA-N

> <Salt_Solvent>


> <Salt_Solvent_ID>
0

> <MPID>
101092

> <Tr_1_Tst_0>
1

> <Ready_Biodeg>
0.0

$$$$
Row1062
  Mrv171c012251911052D          

  5  4  0  0  0  0            999 V2000
    1.4025   -1.5718    0.0000 Cl  0  0  0  0  0  0  0  0  0  0  0  0
    0.9900   -0.8574    0.0000 C   0  0  0  0  0  0  0  0  0  0  0  0
    1.4025   -0.1429    0.0000 C   0  0  0  0  0  0  0  0  0  0  0  0
    0.9900    0.5716    0.0000 O   0  0  0  0  0  0  0  0  0  0  0  0
    0.1650   -0.8574    0.0000 C   0  0  0  0  0  0  0  0  0  0  0  0
  1  2  1  0  0  0  0
  2  3  1  0  0  0  0
  3  4  1  0  0  0  0
  2  5  2  0  0  0  0
M  END
> <ChemID>
101109

> <CAS>
5976-47-6

> <Original_SMILES>
C=C(Cl)CO

> <preferred_name>
2-Chloro-2-propen-1-ol

> <dsstox_substance_id>
DTXSID2073984

> <dsstox_compound_id>
DTXCID3042687

> <qc_level>
Public_High

> <Canonical_QSARr>
C=C(Cl)CO

> <InChI_Code_QSARr>
InChI=1S/C3H5ClO/c1-3(4)2-5/h5H,1-2H2

> <InChI Key_QSARr>
OSCXYTRISGREIM-UHFFFAOYSA-N

> <Salt_Solvent>


> <Salt_Solvent_ID>
0

> <MPID>
101093

> <Tr_1_Tst_0>
1

> <Ready_Biodeg>
1.0

$$$$
Row1063
  Mrv171c012251911052D          

  6  5  0  0  0  0            999 V2000
    2.2721   -1.2949    0.0000 C   0  0  0  0  0  0  0  0  0  0  0  0
    1.8596   -0.5805    0.0000 C   0  0  0  0  0  0  0  0  0  0  0  0
    2.2721    0.1340    0.0000 O   0  0  0  0  0  0  0  0  0  0  0  0
    1.0346   -0.5805    0.0000 C   0  0  0  0  0  0  0  0  0  0  0  0
    0.6221    0.1340    0.0000 C   0  0  0  0  0  0  0  0  0  0  0  0
   -0.2029    0.1340    0.0000 C   0  0  0  0  0  0  0  0  0  0  0  0
  1  2  1  0  0  0  0
  2  3  1  0  0  0  0
  2  4  1  0  0  0  0
  4  5  1  0  0  0  0
  5  6  1  0  0  0  0
M  END
> <ChemID>
101110

> <CAS>
6032-29-7

> <Original_SMILES>
CCCC(C)O

> <preferred_name>
Pentan-2-ol

> <dsstox_substance_id>
DTXSID3052721

> <dsstox_compound_id>
DTXCID1031333

> <qc_level>
DSSTox_Low

> <Canonical_QSARr>
CCCC(C)O

> <InChI_Code_QSARr>
InChI=1S/C5H12O/c1-3-4-5(2)6/h5-6H,3-4H2,1-2H3

> <InChI Key_QSARr>
JYVLIDXNZAXMDK-UHFFFAOYSA-N

> <Salt_Solvent>


> <Salt_Solvent_ID>
0

> <MPID>
101094

> <Tr_1_Tst_0>
1

> <Ready_Biodeg>
1.0

$$$$
Row1064
  Mrv171c012251911052D          

 17 19  0  0  0  0            999 V2000
    4.6101   -1.9212    0.0000 O   0  0  0  0  0  0  0  0  0  0  0  0
    4.2944   -1.1590    0.0000 C   0  0  0  0  0  0  0  0  0  0  0  0
    4.8778   -0.5757    0.0000 C   0  0  0  0  0  0  0  0  0  0  0  0
    5.5923   -0.9882    0.0000 C   0  0  0  0  0  0  0  0  0  0  0  0
    6.3067   -0.5757    0.0000 C   0  0  0  0  0  0  0  0  0  0  0  0
    6.3067    0.2493    0.0000 C   0  0  0  0  0  0  0  0  0  0  0  0
    5.5923    0.6618    0.0000 C   0  0  0  0  0  0  0  0  0  0  0  0
    4.8778    0.2493    0.0000 C   0  0  0  0  0  0  0  0  0  0  0  0
    4.2944    0.8327    0.0000 C   0  0  0  0  0  0  0  0  0  0  0  0
    3.4694    0.8327    0.0000 C   0  0  0  0  0  0  0  0  0  0  0  0
    2.8861    0.2493    0.0000 C   0  0  0  0  0  0  0  0  0  0  0  0
    2.1716    0.6618    0.0000 C   0  0  0  0  0  0  0  0  0  0  0  0
    1.4571    0.2493    0.0000 C   0  0  0  0  0  0  0  0  0  0  0  0
    1.4571   -0.5757    0.0000 C   0  0  0  0  0  0  0  0  0  0  0  0
    2.1716   -0.9882    0.0000 C   0  0  0  0  0  0  0  0  0  0  0  0
    2.8861   -0.5757    0.0000 C   0  0  0  0  0  0  0  0  0  0  0  0
    3.4694   -1.1590    0.0000 N   0  0  0  0  0  0  0  0  0  0  0  0
  1  2  2  0  0  0  0
  3  2  1  0  0  0  0
  3  4  2  0  0  0  0
  4  5  1  0  0  0  0
  5  6  2  0  0  0  0
  6  7  1  0  0  0  0
  7  8  2  0  0  0  0
  8  3  1  0  0  0  0
  9  8  1  0  0  0  0
 10  9  1  0  0  0  0
 11 10  1  0  0  0  0
 11 12  2  0  0  0  0
 12 13  1  0  0  0  0
 13 14  2  0  0  0  0
 14 15  1  0  0  0  0
 15 16  2  0  0  0  0
 16 11  1  0  0  0  0
 17 16  1  0  0  0  0
  2 17  1  0  0  0  0
M  END
> <ChemID>
101111

> <CAS>
6047-29-6

> <Original_SMILES>
O=C1Nc2ccccc2CCc2ccccc21

> <preferred_name>
5,6,11,12-Tetrahydrodibenz(b,f)azocin-6-one

> <dsstox_substance_id>
DTXSID20209215

> <dsstox_compound_id>
DTXCID40131706

> <qc_level>
Public_Medium

> <Canonical_QSARr>
O=C1NC2=CC=CC=C2CCC2=CC=CC=C21

> <InChI_Code_QSARr>
InChI=1S/C15H13NO/c17-15-13-7-3-1-5-11(13)9-10-12-6-2-4-8-14(12)16-15/h1-8H,9-10H2,(H,16,17)

> <InChI Key_QSARr>
JZDBKFVASLJURR-UHFFFAOYSA-N

> <Salt_Solvent>


> <Salt_Solvent_ID>
0

> <MPID>
101095

> <Tr_1_Tst_0>
0

> <Ready_Biodeg>
1.0

$$$$
Row1065
  Mrv171c012251911052D          

 16 17  0  0  0  0            999 V2000
    4.3739   -0.3331    0.0000 S   0  0  0  0  0  0  0  0  0  0  0  0
    4.3739   -1.1581    0.0000 C   0  0  0  0  0  0  0  0  0  0  0  0
    3.6595   -1.5706    0.0000 C   0  0  0  0  0  0  0  0  0  0  0  0
    3.6595   -2.3956    0.0000 C   0  0  0  0  0  0  0  0  0  0  0  0
    4.3739   -2.8081    0.0000 C   0  0  0  0  0  0  0  0  0  0  0  0
    5.0884   -2.3956    0.0000 C   0  0  0  0  0  0  0  0  0  0  0  0
    5.0884   -1.5706    0.0000 C   0  0  0  0  0  0  0  0  0  0  0  0
    3.6595    0.0794    0.0000 C   0  0  0  0  0  0  0  0  0  0  0  0
    3.6595    0.9044    0.0000 C   0  0  0  0  0  0  0  0  0  0  0  0
    2.9450    1.3169    0.0000 C   0  0  0  0  0  0  0  0  0  0  0  0
    2.2305    0.9044    0.0000 C   0  0  0  0  0  0  0  0  0  0  0  0
    1.5161    1.3169    0.0000 C   0  0  0  0  0  0  0  0  0  0  0  0
    0.8016    0.9044    0.0000 O   0  0  0  0  0  0  0  0  0  0  0  0
    1.5161    2.1419    0.0000 O   0  0  0  0  0  0  0  0  0  0  0  0
    2.2305    0.0794    0.0000 C   0  0  0  0  0  0  0  0  0  0  0  0
    2.9450   -0.3331    0.0000 C   0  0  0  0  0  0  0  0  0  0  0  0
  1  2  1  0  0  0  0
  3  2  1  0  0  0  0
  4  3  2  0  0  0  0
  5  4  1  0  0  0  0
  6  5  2  0  0  0  0
  7  6  1  0  0  0  0
  2  7  2  0  0  0  0
  1  8  1  0  0  0  0
  9  8  1  0  0  0  0
 10  9  2  0  0  0  0
 11 10  1  0  0  0  0
 11 12  1  0  0  0  0
 12 13  2  0  0  0  0
 12 14  1  0  0  0  0
 15 11  2  0  0  0  0
 16 15  1  0  0  0  0
  8 16  2  0  0  0  0
M  END
> <ChemID>
101113

> <CAS>
6310-24-3

> <Original_SMILES>
OC(=O)c1ccc(cc1)Sc1ccccc1

> <preferred_name>
4-(Phenylthio)benzoic acid

> <dsstox_substance_id>
DTXSID60212440

> <dsstox_compound_id>
DTXCID60134931

> <qc_level>
Public_Medium

> <Canonical_QSARr>
OC(=O)C1C=CC(=CC=1)SC1C=CC=CC=1

> <InChI_Code_QSARr>
InChI=1S/C13H10O2S/c14-13(15)10-6-8-12(9-7-10)16-11-4-2-1-3-5-11/h1-9H,(H,14,15)

> <InChI Key_QSARr>
WRZVDYSYXLKRNN-UHFFFAOYSA-N

> <Salt_Solvent>


> <Salt_Solvent_ID>
0

> <MPID>
101096

> <Tr_1_Tst_0>
1

> <Ready_Biodeg>
1.0

$$$$
Row1066
  Mrv171c012251911052D          

 21 21  0  0  0  0            999 V2000
    3.3262   -3.3825    0.0000 C   0  0  0  0  0  0  0  0  0  0  0  0
    2.6118   -2.9700    0.0000 C   0  0  0  0  0  0  0  0  0  0  0  0
    3.1420   -2.3381    0.0000 O   0  0  0  0  0  0  0  0  0  0  0  0
    3.9545   -2.4813    0.0000 O   0  0  0  0  0  0  0  0  0  0  0  0
    4.4848   -1.8493    0.0000 C   0  0  0  0  0  0  0  0  0  0  0  0
    5.0151   -1.2173    0.0000 C   0  0  0  0  0  0  0  0  0  0  0  0
    3.8528   -1.3190    0.0000 C   0  0  0  0  0  0  0  0  0  0  0  0
    5.1168   -2.3796    0.0000 C   0  0  0  0  0  0  0  0  0  0  0  0
    2.0815   -2.3381    0.0000 O   0  0  0  0  0  0  0  0  0  0  0  0
    2.3636   -1.5628    0.0000 O   0  0  0  0  0  0  0  0  0  0  0  0
    1.8333   -0.9308    0.0000 C   0  0  0  0  0  0  0  0  0  0  0  0
    1.3030   -0.2988    0.0000 C   0  0  0  0  0  0  0  0  0  0  0  0
    2.4653   -0.4005    0.0000 C   0  0  0  0  0  0  0  0  0  0  0  0
    1.2013   -1.4611    0.0000 C   0  0  0  0  0  0  0  0  0  0  0  0
    1.8973   -3.3825    0.0000 C   0  0  0  0  0  0  0  0  0  0  0  0
    1.8973   -4.2075    0.0000 C   0  0  0  0  0  0  0  0  0  0  0  0
    1.0848   -4.0643    0.0000 C   0  0  0  0  0  0  0  0  0  0  0  0
    1.6151   -4.9828    0.0000 C   0  0  0  0  0  0  0  0  0  0  0  0
    2.6118   -4.6200    0.0000 C   0  0  0  0  0  0  0  0  0  0  0  0
    3.3262   -4.2075    0.0000 C   0  0  0  0  0  0  0  0  0  0  0  0
    4.0407   -4.6200    0.0000 C   0  0  0  0  0  0  0  0  0  0  0  0
  2  1  1  0  0  0  0
  2  3  1  0  0  0  0
  3  4  1  0  0  0  0
  4  5  1  0  0  0  0
  5  6  1  0  0  0  0
  5  7  1  0  0  0  0
  5  8  1  0  0  0  0
  2  9  1  0  0  0  0
  9 10  1  0  0  0  0
 10 11  1  0  0  0  0
 11 12  1  0  0  0  0
 11 13  1  0  0  0  0
 11 14  1  0  0  0  0
 15  2  1  0  0  0  0
 16 15  1  0  0  0  0
 16 17  1  0  0  0  0
 16 18  1  0  0  0  0
 19 16  1  0  0  0  0
 20 19  1  0  0  0  0
  1 20  1  0  0  0  0
 20 21  1  0  0  0  0
M  END
> <ChemID>
101115

> <CAS>
6731-36-8

> <Original_SMILES>
CC1(C)CC(C)CC(C1)(OOC(C)(C)C)OOC(C)(C)C

> <preferred_name>
1,1-Bis(tert-butylperoxy)-3,3,5-trimethylcyclohexane

> <dsstox_substance_id>
DTXSID4020165

> <dsstox_compound_id>
DTXCID80165

> <qc_level>
DSSTox_Low

> <Canonical_QSARr>
CC1(C)CC(C)CC(C1)(OOC(C)(C)C)OOC(C)(C)C

> <InChI_Code_QSARr>
InChI=1S/C17H34O4/c1-13-10-16(8,9)12-17(11-13,20-18-14(2,3)4)21-19-15(5,6)7/h13H,10-12H2,1-9H3

> <InChI Key_QSARr>
NALFRYPTRXKZPN-UHFFFAOYSA-N

> <Salt_Solvent>


> <Salt_Solvent_ID>
0

> <MPID>
101097

> <Tr_1_Tst_0>
1

> <Ready_Biodeg>
0.0

$$$$
Row1067
  Mrv171c012251911052D          

  9  8  0  0  0  0            999 V2000
    0.7230   -0.8380    0.0000 C   0  0  0  0  0  0  0  0  0  0  0  0
    0.0086   -1.2505    0.0000 O   0  0  0  0  0  0  0  0  0  0  0  0
    0.7230   -0.0130    0.0000 O   0  0  0  0  0  0  0  0  0  0  0  0
    1.4375   -1.2505    0.0000 C   0  0  0  0  0  0  0  0  0  0  0  0
    1.4375   -2.0755    0.0000 O   0  0  0  0  0  0  0  0  0  0  0  0
    2.1520   -0.8380    0.0000 C   0  0  0  0  0  0  0  0  0  0  0  0
    2.8665   -1.2505    0.0000 C   0  0  0  0  0  0  0  0  0  0  0  0
    3.5809   -0.8380    0.0000 O   0  0  0  0  0  0  0  0  0  0  0  0
    2.8665   -2.0755    0.0000 O   0  0  0  0  0  0  0  0  0  0  0  0
  1  2  2  0  0  0  0
  1  3  1  0  0  0  0
  1  4  1  0  0  0  0
  4  5  1  0  0  0  0
  4  6  1  0  0  0  0
  6  7  1  0  0  0  0
  7  8  2  0  0  0  0
  7  9  1  0  0  0  0
M  END
> <ChemID>
101116

> <CAS>
6915-15-7

> <Original_SMILES>
OC(=O)C(O)CC(O)=O

> <preferred_name>
Malic acid

> <dsstox_substance_id>
DTXSID0027640

> <dsstox_compound_id>
DTXCID107640

> <qc_level>
DSSTox_High

> <Canonical_QSARr>
OC(=O)C(O)CC(O)=O

> <InChI_Code_QSARr>
InChI=1S/C4H6O5/c5-2(4(8)9)1-3(6)7/h2,5H,1H2,(H,6,7)(H,8,9)

> <InChI Key_QSARr>
BJEPYKJPYRNKOW-UHFFFAOYSA-N

> <Salt_Solvent>


> <Salt_Solvent_ID>
0

> <MPID>
101098

> <Tr_1_Tst_0>
1

> <Ready_Biodeg>
1.0

$$$$
Row1068
  Mrv171c012251911052D          

 44 43  0  0  0  0            999 V2000
   12.9433   -7.7287    0.0000 C   0  0  0  0  0  0  0  0  0  0  0  0
   12.2288   -8.1412    0.0000 C   0  0  0  0  0  0  0  0  0  0  0  0
   11.5143   -7.7287    0.0000 C   0  0  0  0  0  0  0  0  0  0  0  0
   10.7999   -8.1412    0.0000 C   0  0  0  0  0  0  0  0  0  0  0  0
   10.0854   -7.7287    0.0000 C   0  0  0  0  0  0  0  0  0  0  0  0
    9.3709   -8.1412    0.0000 C   0  0  0  0  0  0  0  0  0  0  0  0
    8.6564   -7.7287    0.0000 C   0  0  0  0  0  0  0  0  0  0  0  0
    7.9420   -8.1412    0.0000 C   0  0  0  0  0  0  0  0  0  0  0  0
    7.2275   -7.7287    0.0000 C   0  0  0  0  0  0  0  0  0  0  0  0
    6.5130   -8.1412    0.0000 C   0  0  0  0  0  0  0  0  0  0  0  0
    5.7986   -7.7287    0.0000 C   0  0  0  0  0  0  0  0  0  0  0  0
    5.0841   -8.1412    0.0000 C   0  0  0  0  0  0  0  0  0  0  0  0
    4.3696   -7.7287    0.0000 C   0  0  0  0  0  0  0  0  0  0  0  0
    3.6552   -8.1412    0.0000 C   0  0  0  0  0  0  0  0  0  0  0  0
    2.9407   -7.7287    0.0000 C   0  0  0  0  0  0  0  0  0  0  0  0
    2.2262   -8.1412    0.0000 C   0  0  0  0  0  0  0  0  0  0  0  0
    1.5117   -7.7287    0.0000 C   0  0  0  0  0  0  0  0  0  0  0  0
    0.7973   -8.1412    0.0000 C   0  0  0  0  0  0  0  0  0  0  0  0
    0.0828   -7.7287    0.0000 C   0  0  0  0  0  0  0  0  0  0  0  0
   -0.6317   -8.1412    0.0000 C   0  0  0  0  0  0  0  0  0  0  0  0
   -1.3461   -7.7287    0.0000 C   0  0  0  0  0  0  0  0  0  0  0  0
   -2.0606   -8.1412    0.0000 C   0  0  0  0  0  0  0  0  0  0  0  0
   13.6577   -8.1412    0.0000 C   0  0  0  0  0  0  0  0  0  0  0  0
   14.3722   -7.7287    0.0000 C   0  0  0  0  0  0  0  0  0  0  0  0
   15.0867   -8.1412    0.0000 C   0  0  0  0  0  0  0  0  0  0  0  0
   15.8012   -7.7287    0.0000 C   0  0  0  0  0  0  0  0  0  0  0  0
   16.5156   -8.1412    0.0000 C   0  0  0  0  0  0  0  0  0  0  0  0
   17.2301   -7.7287    0.0000 C   0  0  0  0  0  0  0  0  0  0  0  0
   17.9446   -8.1412    0.0000 C   0  0  0  0  0  0  0  0  0  0  0  0
   18.6590   -7.7287    0.0000 C   0  0  0  0  0  0  0  0  0  0  0  0
   19.3735   -8.1412    0.0000 C   0  0  0  0  0  0  0  0  0  0  0  0
   20.0880   -7.7287    0.0000 C   0  0  0  0  0  0  0  0  0  0  0  0
   20.8025   -8.1412    0.0000 C   0  0  0  0  0  0  0  0  0  0  0  0
   21.5169   -7.7287    0.0000 C   0  0  0  0  0  0  0  0  0  0  0  0
   22.2314   -8.1412    0.0000 C   0  0  0  0  0  0  0  0  0  0  0  0
   22.9459   -7.7287    0.0000 C   0  0  0  0  0  0  0  0  0  0  0  0
   23.6603   -8.1412    0.0000 C   0  0  0  0  0  0  0  0  0  0  0  0
   24.3748   -7.7287    0.0000 C   0  0  0  0  0  0  0  0  0  0  0  0
   25.0893   -8.1412    0.0000 C   0  0  0  0  0  0  0  0  0  0  0  0
   25.8038   -7.7287    0.0000 C   0  0  0  0  0  0  0  0  0  0  0  0
   26.5182   -8.1412    0.0000 C   0  0  0  0  0  0  0  0  0  0  0  0
   27.2327   -7.7287    0.0000 C   0  0  0  0  0  0  0  0  0  0  0  0
   27.9472   -8.1412    0.0000 C   0  0  0  0  0  0  0  0  0  0  0  0
   28.6616   -7.7287    0.0000 C   0  0  0  0  0  0  0  0  0  0  0  0
  1  2  1  0  0  0  0
  2  3  1  0  0  0  0
  3  4  1  0  0  0  0
  4  5  1  0  0  0  0
  5  6  1  0  0  0  0
  6  7  1  0  0  0  0
  7  8  1  0  0  0  0
  8  9  1  0  0  0  0
  9 10  1  0  0  0  0
 10 11  1  0  0  0  0
 11 12  1  0  0  0  0
 12 13  1  0  0  0  0
 13 14  1  0  0  0  0
 14 15  1  0  0  0  0
 15 16  1  0  0  0  0
 16 17  1  0  0  0  0
 17 18  1  0  0  0  0
 18 19  1  0  0  0  0
 19 20  1  0  0  0  0
 20 21  1  0  0  0  0
 21 22  1  0  0  0  0
  1 23  1  0  0  0  0
 23 24  1  0  0  0  0
 24 25  1  0  0  0  0
 25 26  1  0  0  0  0
 26 27  1  0  0  0  0
 27 28  1  0  0  0  0
 28 29  1  0  0  0  0
 29 30  1  0  0  0  0
 30 31  1  0  0  0  0
 31 32  1  0  0  0  0
 32 33  1  0  0  0  0
 33 34  1  0  0  0  0
 34 35  1  0  0  0  0
 35 36  1  0  0  0  0
 36 37  1  0  0  0  0
 37 38  1  0  0  0  0
 38 39  1  0  0  0  0
 39 40  1  0  0  0  0
 40 41  1  0  0  0  0
 41 42  1  0  0  0  0
 42 43  1  0  0  0  0
 43 44  1  0  0  0  0
M  END
> <ChemID>
101117

> <CAS>
7098-22-8

> <Original_SMILES>
CCCCCCCCCCCCCCCCCCCCCCCCCCCCCCCCCCCCCCCCCCCC

> <preferred_name>
Tetratetracontane

> <dsstox_substance_id>
DTXSID5058640

> <dsstox_compound_id>
DTXCID9032327

> <qc_level>
DSSTox_Low

> <Canonical_QSARr>
CCCCCCCCCCCCCCCCCCCCCCCCCCCCCCCCCCCCCCCCCCCC

> <InChI_Code_QSARr>
InChI=1S/C44H90/c1-3-5-7-9-11-13-15-17-19-21-23-25-27-29-31-33-35-37-39-41-43-44-42-40-38-36-34-32-30-28-26-24-22-20-18-16-14-12-10-8-6-4-2/h3-44H2,1-2H3

> <InChI Key_QSARr>
KMXFZRSJMDYPPG-UHFFFAOYSA-N

> <Salt_Solvent>


> <Salt_Solvent_ID>
0

> <MPID>
101099

> <Tr_1_Tst_0>
0

> <Ready_Biodeg>
1.0

$$$$
Row1069
  Mrv171c012251911052D          

  9  9  0  0  0  0            999 V2000
    1.2702    0.2750    0.0000 C   0  0  0  0  0  0  0  0  0  0  0  0
    1.9846   -0.1375    0.0000 C   0  0  0  0  0  0  0  0  0  0  0  0
    1.2702    1.1000    0.0000 C   0  0  0  0  0  0  0  0  0  0  0  0
    0.5557    1.5125    0.0000 C   0  0  0  0  0  0  0  0  0  0  0  0
    0.5557    2.3375    0.0000 N   0  0  0  0  0  0  0  0  0  0  0  0
   -0.1588    1.1000    0.0000 C   0  0  0  0  0  0  0  0  0  0  0  0
   -0.1588    0.2750    0.0000 C   0  0  0  0  0  0  0  0  0  0  0  0
    0.5557   -0.1375    0.0000 C   0  0  0  0  0  0  0  0  0  0  0  0
    0.5557   -0.9625    0.0000 Cl  0  0  0  0  0  0  0  0  0  0  0  0
  1  2  1  0  0  0  0
  3  1  1  0  0  0  0
  4  3  2  0  0  0  0
  4  5  1  0  0  0  0
  6  4  1  0  0  0  0
  7  6  2  0  0  0  0
  8  7  1  0  0  0  0
  1  8  2  0  0  0  0
  8  9  1  0  0  0  0
M  END
> <ChemID>
101118

> <CAS>
7149-75-9

> <Original_SMILES>
Cc1cc(N)ccc1Cl

> <preferred_name>
4-Chloro-3-methylaniline

> <dsstox_substance_id>
DTXSID5073377

> <dsstox_compound_id>
DTXCID5047039

> <qc_level>
Public_High

> <Canonical_QSARr>
CC1C=C(N)C=CC=1Cl

> <InChI_Code_QSARr>
InChI=1S/C7H8ClN/c1-5-4-6(9)2-3-7(5)8/h2-4H,9H2,1H3

> <InChI Key_QSARr>
HIHCTGNZNHSZPP-UHFFFAOYSA-N

> <Salt_Solvent>


> <Salt_Solvent_ID>
0

> <MPID>
101100

> <Tr_1_Tst_0>
1

> <Ready_Biodeg>
0.0

$$$$
Row1070
  Mrv171c012251911052D          

 37 36  0  0  0  0            999 V2000
   33.1887   12.5604    0.0000 C   0  0  0  0  0  0  0  0  0  0  0  0
   32.4743   12.1479    0.0000 C   0  0  0  0  0  0  0  0  0  0  0  0
   31.7598   12.5604    0.0000 C   0  0  0  0  0  0  0  0  0  0  0  0
   31.0453   12.1479    0.0000 C   0  0  0  0  0  0  0  0  0  0  0  0
   30.3308   12.5604    0.0000 C   0  0  0  0  0  0  0  0  0  0  0  0
   29.6164   12.1479    0.0000 C   0  0  0  0  0  0  0  0  0  0  0  0
   28.9019   12.5604    0.0000 C   0  0  0  0  0  0  0  0  0  0  0  0
   28.1874   12.1479    0.0000 C   0  0  0  0  0  0  0  0  0  0  0  0
   27.4730   12.5604    0.0000 C   0  0  0  0  0  0  0  0  0  0  0  0
   26.7585   12.1479    0.0000 C   0  0  0  0  0  0  0  0  0  0  0  0
   26.0440   12.5604    0.0000 C   0  0  0  0  0  0  0  0  0  0  0  0
   25.3295   12.1479    0.0000 C   0  0  0  0  0  0  0  0  0  0  0  0
   24.6151   12.5604    0.0000 C   0  0  0  0  0  0  0  0  0  0  0  0
   23.9006   12.1479    0.0000 C   0  0  0  0  0  0  0  0  0  0  0  0
   23.1861   12.5604    0.0000 C   0  0  0  0  0  0  0  0  0  0  0  0
   22.4717   12.1479    0.0000 C   0  0  0  0  0  0  0  0  0  0  0  0
   21.7572   12.5604    0.0000 C   0  0  0  0  0  0  0  0  0  0  0  0
   21.0427   12.1479    0.0000 C   0  0  0  0  0  0  0  0  0  0  0  0
   20.3282   12.5604    0.0000 C   0  0  0  0  0  0  0  0  0  0  0  0
   33.9032   12.1479    0.0000 C   0  0  0  0  0  0  0  0  0  0  0  0
   34.6177   12.5604    0.0000 C   0  0  0  0  0  0  0  0  0  0  0  0
   35.3321   12.1479    0.0000 C   0  0  0  0  0  0  0  0  0  0  0  0
   36.0466   12.5604    0.0000 C   0  0  0  0  0  0  0  0  0  0  0  0
   36.7611   12.1479    0.0000 C   0  0  0  0  0  0  0  0  0  0  0  0
   37.4755   12.5604    0.0000 C   0  0  0  0  0  0  0  0  0  0  0  0
   38.1900   12.1479    0.0000 C   0  0  0  0  0  0  0  0  0  0  0  0
   38.9045   12.5604    0.0000 C   0  0  0  0  0  0  0  0  0  0  0  0
   39.6190   12.1479    0.0000 C   0  0  0  0  0  0  0  0  0  0  0  0
   40.3334   12.5604    0.0000 C   0  0  0  0  0  0  0  0  0  0  0  0
   41.0479   12.1479    0.0000 C   0  0  0  0  0  0  0  0  0  0  0  0
   41.7624   12.5604    0.0000 C   0  0  0  0  0  0  0  0  0  0  0  0
   42.4768   12.1479    0.0000 C   0  0  0  0  0  0  0  0  0  0  0  0
   43.1913   12.5604    0.0000 C   0  0  0  0  0  0  0  0  0  0  0  0
   43.9058   12.1479    0.0000 C   0  0  0  0  0  0  0  0  0  0  0  0
   44.6203   12.5604    0.0000 C   0  0  0  0  0  0  0  0  0  0  0  0
   45.3347   12.1479    0.0000 C   0  0  0  0  0  0  0  0  0  0  0  0
   46.0492   12.5604    0.0000 C   0  0  0  0  0  0  0  0  0  0  0  0
  1  2  1  0  0  0  0
  2  3  1  0  0  0  0
  3  4  1  0  0  0  0
  4  5  1  0  0  0  0
  5  6  1  0  0  0  0
  6  7  1  0  0  0  0
  7  8  1  0  0  0  0
  8  9  1  0  0  0  0
  9 10  1  0  0  0  0
 10 11  1  0  0  0  0
 11 12  1  0  0  0  0
 12 13  1  0  0  0  0
 13 14  1  0  0  0  0
 14 15  1  0  0  0  0
 15 16  1  0  0  0  0
 16 17  1  0  0  0  0
 17 18  1  0  0  0  0
 18 19  1  0  0  0  0
  1 20  1  0  0  0  0
 20 21  1  0  0  0  0
 21 22  1  0  0  0  0
 22 23  1  0  0  0  0
 23 24  1  0  0  0  0
 24 25  1  0  0  0  0
 25 26  1  0  0  0  0
 26 27  1  0  0  0  0
 27 28  1  0  0  0  0
 28 29  1  0  0  0  0
 29 30  1  0  0  0  0
 30 31  1  0  0  0  0
 31 32  1  0  0  0  0
 32 33  1  0  0  0  0
 33 34  1  0  0  0  0
 34 35  1  0  0  0  0
 35 36  1  0  0  0  0
 36 37  1  0  0  0  0
M  END
> <ChemID>
101119

> <CAS>
7194-84-5

> <Original_SMILES>
CCCCCCCCCCCCCCCCCCCCCCCCCCCCCCCCCCCCC

> <preferred_name>
Heptatriacontane

> <dsstox_substance_id>
DTXSID0064591

> <dsstox_compound_id>
DTXCID5047166

> <qc_level>
Public_High

> <Canonical_QSARr>
CCCCCCCCCCCCCCCCCCCCCCCCCCCCCCCCCCCCC

> <InChI_Code_QSARr>
InChI=1S/C37H76/c1-3-5-7-9-11-13-15-17-19-21-23-25-27-29-31-33-35-37-36-34-32-30-28-26-24-22-20-18-16-14-12-10-8-6-4-2/h3-37H2,1-2H3

> <InChI Key_QSARr>
PXEZIKSRSYGOED-UHFFFAOYSA-N

> <Salt_Solvent>


> <Salt_Solvent_ID>
0

> <MPID>
101101

> <Tr_1_Tst_0>
1

> <Ready_Biodeg>
1.0

$$$$
Row1071
  Mrv171c012251911052D          

 38 37  0  0  0  0            999 V2000
   32.4723   12.1472    0.0000 C   0  0  0  0  0  0  0  0  0  0  0  0
   31.7579   12.5597    0.0000 C   0  0  0  0  0  0  0  0  0  0  0  0
   31.0434   12.1472    0.0000 C   0  0  0  0  0  0  0  0  0  0  0  0
   30.3289   12.5597    0.0000 C   0  0  0  0  0  0  0  0  0  0  0  0
   29.6145   12.1472    0.0000 C   0  0  0  0  0  0  0  0  0  0  0  0
   28.9000   12.5597    0.0000 C   0  0  0  0  0  0  0  0  0  0  0  0
   28.1855   12.1472    0.0000 C   0  0  0  0  0  0  0  0  0  0  0  0
   27.4710   12.5597    0.0000 C   0  0  0  0  0  0  0  0  0  0  0  0
   26.7566   12.1472    0.0000 C   0  0  0  0  0  0  0  0  0  0  0  0
   26.0421   12.5597    0.0000 C   0  0  0  0  0  0  0  0  0  0  0  0
   25.3276   12.1472    0.0000 C   0  0  0  0  0  0  0  0  0  0  0  0
   24.6132   12.5597    0.0000 C   0  0  0  0  0  0  0  0  0  0  0  0
   23.8987   12.1472    0.0000 C   0  0  0  0  0  0  0  0  0  0  0  0
   23.1842   12.5597    0.0000 C   0  0  0  0  0  0  0  0  0  0  0  0
   22.4697   12.1472    0.0000 C   0  0  0  0  0  0  0  0  0  0  0  0
   21.7553   12.5597    0.0000 C   0  0  0  0  0  0  0  0  0  0  0  0
   21.0408   12.1472    0.0000 C   0  0  0  0  0  0  0  0  0  0  0  0
   20.3263   12.5597    0.0000 C   0  0  0  0  0  0  0  0  0  0  0  0
   19.6119   12.1472    0.0000 C   0  0  0  0  0  0  0  0  0  0  0  0
   33.1868   12.5597    0.0000 C   0  0  0  0  0  0  0  0  0  0  0  0
   33.9013   12.1472    0.0000 C   0  0  0  0  0  0  0  0  0  0  0  0
   34.6158   12.5597    0.0000 C   0  0  0  0  0  0  0  0  0  0  0  0
   35.3302   12.1472    0.0000 C   0  0  0  0  0  0  0  0  0  0  0  0
   36.0447   12.5597    0.0000 C   0  0  0  0  0  0  0  0  0  0  0  0
   36.7592   12.1472    0.0000 C   0  0  0  0  0  0  0  0  0  0  0  0
   37.4736   12.5597    0.0000 C   0  0  0  0  0  0  0  0  0  0  0  0
   38.1881   12.1472    0.0000 C   0  0  0  0  0  0  0  0  0  0  0  0
   38.9026   12.5597    0.0000 C   0  0  0  0  0  0  0  0  0  0  0  0
   39.6171   12.1472    0.0000 C   0  0  0  0  0  0  0  0  0  0  0  0
   40.3315   12.5597    0.0000 C   0  0  0  0  0  0  0  0  0  0  0  0
   41.0460   12.1472    0.0000 C   0  0  0  0  0  0  0  0  0  0  0  0
   41.7605   12.5597    0.0000 C   0  0  0  0  0  0  0  0  0  0  0  0
   42.4749   12.1472    0.0000 C   0  0  0  0  0  0  0  0  0  0  0  0
   43.1894   12.5597    0.0000 C   0  0  0  0  0  0  0  0  0  0  0  0
   43.9039   12.1472    0.0000 C   0  0  0  0  0  0  0  0  0  0  0  0
   44.6183   12.5597    0.0000 C   0  0  0  0  0  0  0  0  0  0  0  0
   45.3328   12.1472    0.0000 C   0  0  0  0  0  0  0  0  0  0  0  0
   46.0473   12.5597    0.0000 C   0  0  0  0  0  0  0  0  0  0  0  0
  1  2  1  0  0  0  0
  2  3  1  0  0  0  0
  3  4  1  0  0  0  0
  4  5  1  0  0  0  0
  5  6  1  0  0  0  0
  6  7  1  0  0  0  0
  7  8  1  0  0  0  0
  8  9  1  0  0  0  0
  9 10  1  0  0  0  0
 10 11  1  0  0  0  0
 11 12  1  0  0  0  0
 12 13  1  0  0  0  0
 13 14  1  0  0  0  0
 14 15  1  0  0  0  0
 15 16  1  0  0  0  0
 16 17  1  0  0  0  0
 17 18  1  0  0  0  0
 18 19  1  0  0  0  0
  1 20  1  0  0  0  0
 20 21  1  0  0  0  0
 21 22  1  0  0  0  0
 22 23  1  0  0  0  0
 23 24  1  0  0  0  0
 24 25  1  0  0  0  0
 25 26  1  0  0  0  0
 26 27  1  0  0  0  0
 27 28  1  0  0  0  0
 28 29  1  0  0  0  0
 29 30  1  0  0  0  0
 30 31  1  0  0  0  0
 31 32  1  0  0  0  0
 32 33  1  0  0  0  0
 33 34  1  0  0  0  0
 34 35  1  0  0  0  0
 35 36  1  0  0  0  0
 36 37  1  0  0  0  0
 37 38  1  0  0  0  0
M  END
> <ChemID>
101120

> <CAS>
7194-85-6

> <Original_SMILES>
CCCCCCCCCCCCCCCCCCCCCCCCCCCCCCCCCCCCCC

> <preferred_name>
Octatriacontane

> <dsstox_substance_id>
DTXSID5064592

> <dsstox_compound_id>
DTXCID0047167

> <qc_level>
Public_High

> <Canonical_QSARr>
CCCCCCCCCCCCCCCCCCCCCCCCCCCCCCCCCCCCCC

> <InChI_Code_QSARr>
InChI=1S/C38H78/c1-3-5-7-9-11-13-15-17-19-21-23-25-27-29-31-33-35-37-38-36-34-32-30-28-26-24-22-20-18-16-14-12-10-8-6-4-2/h3-38H2,1-2H3

> <InChI Key_QSARr>
BVKCQBBZBGYNOP-UHFFFAOYSA-N

> <Salt_Solvent>


> <Salt_Solvent_ID>
0

> <MPID>
101102

> <Tr_1_Tst_0>
1

> <Ready_Biodeg>
1.0

$$$$
Row1072
  Mrv171c012251911052D          

 12 12  0  0  0  0            999 V2000
    0.7145    2.0625    0.0000 O   0  0  0  0  0  0  0  0  0  0  0  0
    0.7145    1.2375    0.0000 C   0  0  0  0  0  0  0  0  0  0  0  0
    1.4289    0.8250    0.0000 C   0  0  0  0  0  0  0  0  0  0  0  0
    1.4289   -0.0000    0.0000 C   0  0  0  0  0  0  0  0  0  0  0  0
    0.7145   -0.4125    0.0000 C   0  0  0  0  0  0  0  0  0  0  0  0
    0.0000    0.0000    0.0000 C   0  0  0  0  0  0  0  0  0  0  0  0
    0.0000    0.8250    0.0000 C   0  0  0  0  0  0  0  0  0  0  0  0
    0.7145   -1.2375    0.0000 C   0  0  0  0  0  0  0  0  0  0  0  0
   -0.0000   -1.6500    0.0000 C   0  0  0  0  0  0  0  0  0  0  0  0
   -0.0000   -2.4750    0.0000 C   0  0  0  0  0  0  0  0  0  0  0  0
    0.7145   -2.8875    0.0000 O   0  0  0  0  0  0  0  0  0  0  0  0
   -0.7145   -2.8875    0.0000 O   0  0  0  0  0  0  0  0  0  0  0  0
  1  2  1  0  0  0  0
  2  3  1  0  0  0  0
  3  4  2  0  0  0  0
  4  5  1  0  0  0  0
  5  6  2  0  0  0  0
  6  7  1  0  0  0  0
  2  7  2  0  0  0  0
  8  5  1  4  0  0  0
  8  9  2  0  0  0  0
  9 10  1  0  0  0  0
 10 11  1  0  0  0  0
 10 12  2  0  0  0  0
M  END
> <ChemID>
101121

> <CAS>
7400-08-0

> <Original_SMILES>
Oc1ccc(C=CC(O)=O)cc1

> <preferred_name>
p-Hydroxycinnamic acid

> <dsstox_substance_id>
DTXSID6064660

> <dsstox_compound_id>
DTXCID1047605

> <qc_level>
Public_High

> <Canonical_QSARr>
OC1C=CC(=CC=1)C=CC(O)=O

> <InChI_Code_QSARr>
InChI=1S/C9H8O3/c10-8-4-1-7(2-5-8)3-6-9(11)12/h1-6,10H,(H,11,12)

> <InChI Key_QSARr>
NGSWKAQJJWESNS-UHFFFAOYSA-N

> <Salt_Solvent>


> <Salt_Solvent_ID>
0

> <MPID>
101103

> <Tr_1_Tst_0>
0

> <Ready_Biodeg>
1.0

$$$$
Row1073
  Mrv171c012251911052D          

  9  8  0  0  0  0            999 V2000
    3.1894    2.6664    0.0000 O   0  0  0  0  0  0  0  0  0  0  0  0
    3.1894    1.8414    0.0000 C   0  0  0  0  0  0  0  0  0  0  0  0
    2.4749    1.4289    0.0000 C   0  0  0  0  0  0  0  0  0  0  0  0
    1.7605    1.8414    0.0000 C   0  0  0  0  0  0  0  0  0  0  0  0
    3.9039    1.4289    0.0000 C   0  0  0  0  0  0  0  0  0  0  0  0
    4.6184    1.8414    0.0000 C   0  0  0  0  0  0  0  0  0  0  0  0
    5.3328    1.4289    0.0000 C   0  0  0  0  0  0  0  0  0  0  0  0
    6.0473    1.8414    0.0000 C   0  0  0  0  0  0  0  0  0  0  0  0
    4.6184    2.6664    0.0000 O   0  0  0  0  0  0  0  0  0  0  0  0
  1  2  2  0  0  0  0
  2  3  1  0  0  0  0
  3  4  1  0  0  0  0
  2  5  1  0  0  0  0
  5  6  1  0  0  0  0
  6  7  1  0  0  0  0
  7  8  1  0  0  0  0
  6  9  2  0  0  0  0
M  END
> <ChemID>
101122

> <CAS>
7424-54-6

> <Original_SMILES>
CCC(=O)CC(=O)CC

> <preferred_name>
3,5-Heptanedione

> <dsstox_substance_id>
DTXSID1064669

> <dsstox_compound_id>
DTXCID4047626

> <qc_level>
Public_High

> <Canonical_QSARr>
CCC(=O)CC(=O)CC

> <InChI_Code_QSARr>
InChI=1S/C7H12O2/c1-3-6(8)5-7(9)4-2/h3-5H2,1-2H3

> <InChI Key_QSARr>
DGCTVLNZTFDPDJ-UHFFFAOYSA-N

> <Salt_Solvent>


> <Salt_Solvent_ID>
0

> <MPID>
101104

> <Tr_1_Tst_0>
1

> <Ready_Biodeg>
1.0

$$$$
Row1074
  Mrv171c012251911052D          

 10 10  0  0  0  0            999 V2000
    1.4289    0.8250    0.0000 C   0  0  0  0  0  0  0  0  0  0  0  0
    0.7145    1.2375    0.0000 C   0  0  0  0  0  0  0  0  0  0  0  0
    0.7145    2.0625    0.0000 C   0  0  0  0  0  0  0  0  0  0  0  0
   -0.0000    2.4750    0.0000 C   0  0  0  0  0  0  0  0  0  0  0  0
   -0.0000    0.8250    0.0000 C   0  0  0  0  0  0  0  0  0  0  0  0
   -0.0000   -0.0000    0.0000 C   0  0  0  0  0  0  0  0  0  0  0  0
    0.7145   -0.4125    0.0000 C   0  0  0  0  0  0  0  0  0  0  0  0
    1.4289   -0.0000    0.0000 C   0  0  0  0  0  0  0  0  0  0  0  0
    2.1434   -0.4125    0.0000 C   0  0  0  0  0  0  0  0  0  0  0  0
    2.8579   -0.0000    0.0000 C   0  0  0  0  0  0  0  0  0  0  0  0
  2  1  1  0  0  0  0
  2  3  1  0  0  0  0
  3  4  2  0  0  0  0
  5  2  2  0  0  0  0
  6  5  1  0  0  0  0
  7  6  2  0  0  0  0
  8  7  1  0  0  0  0
  1  8  2  0  0  0  0
  8  9  1  0  0  0  0
  9 10  1  0  0  0  0
M  END
> <ChemID>
101123

> <CAS>
7525-62-4

> <Original_SMILES>
CCc1cc(C=C)ccc1

> <preferred_name>
Benzene, 1-ethenyl-3-ethyl-

> <dsstox_substance_id>
DTXSID7075266

> <dsstox_compound_id>
DTXCID8047763

> <qc_level>
Public_High

> <Canonical_QSARr>
CCC1=CC(C=C)=CC=C1

> <InChI_Code_QSARr>
InChI=1S/C10H12/c1-3-9-6-5-7-10(4-2)8-9/h3,5-8H,1,4H2,2H3

> <InChI Key_QSARr>
XHUZSRRCICJJCN-UHFFFAOYSA-N

> <Salt_Solvent>


> <Salt_Solvent_ID>
0

> <MPID>
101105

> <Tr_1_Tst_0>
1

> <Ready_Biodeg>
0.0

$$$$
Row1075
  Mrv171c012251911052D          

 22 21  0  0  0  0            999 V2000
   14.2191    4.6532    0.0000 O   0  0  0  0  0  0  0  0  0  0  0  0
   14.3280    3.8354    0.0000 C   0  0  0  0  0  0  0  0  0  0  0  0
   13.6743    3.3321    0.0000 C   0  0  0  0  0  0  0  0  0  0  0  0
   12.9116    3.6467    0.0000 C   0  0  0  0  0  0  0  0  0  0  0  0
   12.2579    3.1434    0.0000 C   0  0  0  0  0  0  0  0  0  0  0  0
   11.4952    3.4579    0.0000 C   0  0  0  0  0  0  0  0  0  0  0  0
   10.8415    2.9547    0.0000 C   0  0  0  0  0  0  0  0  0  0  0  0
   10.0788    3.2692    0.0000 C   0  0  0  0  0  0  0  0  0  0  0  0
    9.4250    2.7660    0.0000 C   0  0  0  0  0  0  0  0  0  0  0  0
    8.6623    3.0805    0.0000 C   0  0  0  0  0  0  0  0  0  0  0  0
    8.0086    2.5773    0.0000 C   0  0  0  0  0  0  0  0  0  0  0  0
    7.2459    2.8918    0.0000 C   0  0  0  0  0  0  0  0  0  0  0  0
    6.5922    2.3886    0.0000 C   0  0  0  0  0  0  0  0  0  0  0  0
    5.8295    2.7031    0.0000 C   0  0  0  0  0  0  0  0  0  0  0  0
    5.1758    2.1998    0.0000 C   0  0  0  0  0  0  0  0  0  0  0  0
   15.0907    3.5209    0.0000 N   0  0  0  0  0  0  0  0  0  0  0  0
   15.7445    4.0241    0.0000 C   0  0  0  0  0  0  0  0  0  0  0  0
   16.5072    3.7096    0.0000 C   0  0  0  0  0  0  0  0  0  0  0  0
   17.1609    4.2128    0.0000 O   0  0  0  0  0  0  0  0  0  0  0  0
   15.1997    2.7031    0.0000 C   0  0  0  0  0  0  0  0  0  0  0  0
   15.9624    2.3886    0.0000 C   0  0  0  0  0  0  0  0  0  0  0  0
   16.0713    1.5708    0.0000 O   0  0  0  0  0  0  0  0  0  0  0  0
  1  2  2  0  0  0  0
  2  3  1  0  0  0  0
  3  4  1  0  0  0  0
  4  5  1  0  0  0  0
  5  6  1  0  0  0  0
  6  7  1  0  0  0  0
  7  8  1  0  0  0  0
  8  9  1  0  0  0  0
  9 10  1  0  0  0  0
 10 11  1  0  0  0  0
 11 12  1  0  0  0  0
 12 13  1  0  0  0  0
 13 14  1  0  0  0  0
 14 15  1  0  0  0  0
  2 16  1  0  0  0  0
 16 17  1  0  0  0  0
 17 18  1  0  0  0  0
 18 19  1  0  0  0  0
 16 20  1  0  0  0  0
 20 21  1  0  0  0  0
 21 22  1  0  0  0  0
M  END
> <ChemID>
101124

> <CAS>
7545-23-5

> <Original_SMILES>
CCCCCCCCCCCCCC(=O)N(CCO)CCO

> <preferred_name>
N,N-Bis(2-hydroxyethyl)tetradecamide

> <dsstox_substance_id>
DTXSID1064740

> <dsstox_compound_id>
DTXCID6047783

> <qc_level>
Public_High

> <Canonical_QSARr>
CCCCCCCCCCCCCC(=O)N(CCO)CCO

> <InChI_Code_QSARr>
InChI=1S/C18H37NO3/c1-2-3-4-5-6-7-8-9-10-11-12-13-18(22)19(14-16-20)15-17-21/h20-21H,2-17H2,1H3

> <InChI Key_QSARr>
SKDZEPBJPGSFHS-UHFFFAOYSA-N

> <Salt_Solvent>


> <Salt_Solvent_ID>
0

> <MPID>
101106

> <Tr_1_Tst_0>
1

> <Ready_Biodeg>
1.0

$$$$
Row1076
  Mrv171c012251911052D          

 24 23  0  0  0  0            999 V2000
   10.5547   -0.7659    0.0000 C   0  0  0  0  0  0  0  0  0  0  0  0
    9.8922   -1.2577    0.0000 C   0  0  0  0  0  0  0  0  0  0  0  0
    9.1351   -0.9298    0.0000 C   0  0  0  0  0  0  0  0  0  0  0  0
    8.4727   -1.4216    0.0000 C   0  0  0  0  0  0  0  0  0  0  0  0
    7.7156   -1.0938    0.0000 C   0  0  0  0  0  0  0  0  0  0  0  0
    7.0532   -1.5855    0.0000 C   0  0  0  0  0  0  0  0  0  0  0  0
    6.2961   -1.2577    0.0000 C   0  0  0  0  0  0  0  0  0  0  0  0
    5.6337   -1.7494    0.0000 C   0  0  0  0  0  0  0  0  0  0  0  0
    4.8766   -1.4216    0.0000 C   0  0  0  0  0  0  0  0  0  0  0  0
    4.2142   -1.9133    0.0000 C   0  0  0  0  0  0  0  0  0  0  0  0
    3.4571   -1.5855    0.0000 C   0  0  0  0  0  0  0  0  0  0  0  0
    2.7947   -2.0772    0.0000 C   0  0  0  0  0  0  0  0  0  0  0  0
    2.0376   -1.7494    0.0000 C   0  0  0  0  0  0  0  0  0  0  0  0
    1.3752   -2.2411    0.0000 C   0  0  0  0  0  0  0  0  0  0  0  0
    0.6181   -1.9133    0.0000 C   0  0  0  0  0  0  0  0  0  0  0  0
   -0.0444   -2.4050    0.0000 C   0  0  0  0  0  0  0  0  0  0  0  0
   11.3117   -1.0938    0.0000 N   0  0  0  0  0  0  0  0  0  0  0  0
   11.9742   -0.6020    0.0000 C   0  0  0  0  0  0  0  0  0  0  0  0
   12.7312   -0.9298    0.0000 C   0  0  0  0  0  0  0  0  0  0  0  0
   13.3937   -0.4381    0.0000 O   0  0  0  0  0  0  0  0  0  0  0  0
   11.4064   -1.9133    0.0000 C   0  0  0  0  0  0  0  0  0  0  0  0
   12.1634   -2.2411    0.0000 C   0  0  0  0  0  0  0  0  0  0  0  0
   12.2581   -3.0607    0.0000 O   0  0  0  0  0  0  0  0  0  0  0  0
   10.4600    0.0536    0.0000 O   0  0  0  0  0  0  0  0  0  0  0  0
  1  2  1  0  0  0  0
  2  3  1  0  0  0  0
  3  4  1  0  0  0  0
  4  5  1  0  0  0  0
  5  6  1  0  0  0  0
  6  7  1  0  0  0  0
  7  8  1  0  0  0  0
  8  9  1  0  0  0  0
  9 10  1  0  0  0  0
 10 11  1  0  0  0  0
 11 12  1  0  0  0  0
 12 13  1  0  0  0  0
 13 14  1  0  0  0  0
 14 15  1  0  0  0  0
 15 16  1  0  0  0  0
  1 17  1  0  0  0  0
 17 18  1  0  0  0  0
 18 19  1  0  0  0  0
 19 20  1  0  0  0  0
 17 21  1  0  0  0  0
 21 22  1  0  0  0  0
 22 23  1  0  0  0  0
  1 24  2  0  0  0  0
M  END
> <ChemID>
101125

> <CAS>
68155-06-6

> <Original_SMILES>
CCCCCCCCCCCCCCCC(=O)N(CCO)CCO

> <preferred_name>
Amides, C12-18, N,N-bis(hydroxyethyl)

> <dsstox_substance_id>
DTXSID6029414

> <dsstox_compound_id>
DTXCID609414

> <qc_level>
DSSTox_Low

> <Canonical_QSARr>
CCCCCCCCCCCCCCCC(=O)N(CCO)CCO

> <InChI_Code_QSARr>
InChI=1S/C20H41NO3/c1-2-3-4-5-6-7-8-9-10-11-12-13-14-15-20(24)21(16-18-22)17-19-23/h22-23H,2-19H2,1H3

> <InChI Key_QSARr>
VJESJEJNMGVQLZ-UHFFFAOYSA-N

> <Salt_Solvent>


> <Salt_Solvent_ID>
0

> <MPID>
101107

> <Tr_1_Tst_0>
0

> <Ready_Biodeg>
1.0

$$$$
Row1077
  Mrv171c012251911052D          

  9  8  0  0  0  0            999 V2000
    0.8250    0.0000    0.0000 C   0  0  0  0  0  0  0  0  0  0  0  0
    0.8250    0.8250    0.0000 O   0  0  0  0  0  0  0  0  0  0  0  0
    0.8250   -0.8250    0.0000 C   0  0  0  0  0  0  0  0  0  0  0  0
    1.6500    0.0000    0.0000 C   0  0  0  0  0  0  0  0  0  0  0  0
    2.0625   -0.7144    0.0000 C   0  0  0  0  0  0  0  0  0  0  0  0
    2.8875   -0.7144    0.0000 O   0  0  0  0  0  0  0  0  0  0  0  0
    0.0000    0.0000    0.0000 C   0  0  0  0  0  0  0  0  0  0  0  0
   -0.4125    0.7145    0.0000 C   0  0  0  0  0  0  0  0  0  0  0  0
   -1.2375    0.7145    0.0000 O   0  0  0  0  0  0  0  0  0  0  0  0
  1  2  1  0  0  0  0
  1  3  1  0  0  0  0
  1  4  1  0  0  0  0
  4  5  1  0  0  0  0
  5  6  1  0  0  0  0
  1  7  1  0  0  0  0
  7  8  1  0  0  0  0
  8  9  1  0  0  0  0
M  END
> <ChemID>
101126

> <CAS>
7564-64-9

> <Original_SMILES>
CC(O)(CCO)CCO

> <preferred_name>
1,3,5-Pentanetriol, 3-methyl-

> <dsstox_substance_id>
DTXSID1064742

> <dsstox_compound_id>
DTXCID0047799

> <qc_level>
Public_High

> <Canonical_QSARr>
CC(O)(CCO)CCO

> <InChI_Code_QSARr>
InChI=1S/C6H14O3/c1-6(9,2-4-7)3-5-8/h7-9H,2-5H2,1H3

> <InChI Key_QSARr>
AHHQDHCTHYTBSV-UHFFFAOYSA-N

> <Salt_Solvent>


> <Salt_Solvent_ID>
0

> <MPID>
101108

> <Tr_1_Tst_0>
1

> <Ready_Biodeg>
0.0

$$$$
Row1078
  Mrv171c012251911052D          

 12 12  0  0  0  0            999 V2000
    4.1936   -3.1596    0.0000 N   0  0  0  0  0  0  0  0  0  0  0  0
    4.9081   -3.5721    0.0000 C   0  0  0  0  0  0  0  0  0  0  0  0
    4.9081   -4.3971    0.0000 C   0  0  0  0  0  0  0  0  0  0  0  0
    4.1936   -2.3346    0.0000 C   0  0  0  0  0  0  0  0  0  0  0  0
    3.4791   -1.9221    0.0000 N   0  0  0  0  0  0  0  0  0  0  0  0
    3.4791   -1.0971    0.0000 C   0  0  0  0  0  0  0  0  0  0  0  0
    2.7646   -0.6846    0.0000 C   0  0  0  0  0  0  0  0  0  0  0  0
    2.7646   -2.3346    0.0000 C   0  0  0  0  0  0  0  0  0  0  0  0
    2.7646   -3.1596    0.0000 N   0  0  0  0  0  0  0  0  0  0  0  0
    2.0502   -3.5721    0.0000 C   0  0  0  0  0  0  0  0  0  0  0  0
    2.0502   -4.3971    0.0000 C   0  0  0  0  0  0  0  0  0  0  0  0
    3.4791   -3.5721    0.0000 C   0  0  0  0  0  0  0  0  0  0  0  0
  1  2  1  0  0  0  0
  2  3  1  0  0  0  0
  4  1  1  0  0  0  0
  5  4  1  0  0  0  0
  5  6  1  0  0  0  0
  6  7  1  0  0  0  0
  8  5  1  0  0  0  0
  9  8  1  0  0  0  0
  9 10  1  0  0  0  0
 10 11  1  0  0  0  0
 12  9  1  0  0  0  0
  1 12  1  0  0  0  0
M  END
> <ChemID>
101128

> <CAS>
7779-27-3

> <Original_SMILES>
CCN1CN(CN(C1)CC)CC

> <preferred_name>
1,3,5-Triethylhexahydro-s-triazine

> <dsstox_substance_id>
DTXSID1032511

> <dsstox_compound_id>
DTXCID9012511

> <qc_level>
DSSTox_Low

> <Canonical_QSARr>
CCN1CN(CN(C1)CC)CC

> <InChI_Code_QSARr>
InChI=1S/C9H21N3/c1-4-10-7-11(5-2)9-12(6-3)8-10/h4-9H2,1-3H3

> <InChI Key_QSARr>
XYRTVIAPRQLSOW-UHFFFAOYSA-N

> <Salt_Solvent>


> <Salt_Solvent_ID>
0

> <MPID>
101109

> <Tr_1_Tst_0>
1

> <Ready_Biodeg>
1.0

$$$$
Row1079
  Mrv171c012251911052D          

 12 12  0  0  0  0            999 V2000
    1.9477   -0.2599    0.0000 O   0  0  0  0  0  0  0  0  0  0  0  0
    1.2332   -0.6724    0.0000 C   0  0  0  0  0  0  0  0  0  0  0  0
    0.5188   -0.2599    0.0000 C   0  0  0  0  0  0  0  0  0  0  0  0
    2.6622   -0.6724    0.0000 C   0  0  0  0  0  0  0  0  0  0  0  0
    3.3767   -0.2599    0.0000 C   0  0  0  0  0  0  0  0  0  0  0  0
    4.0911   -0.6724    0.0000 C   0  0  0  0  0  0  0  0  0  0  0  0
    4.8056   -0.2599    0.0000 C   0  0  0  0  0  0  0  0  0  0  0  0
    4.8056    0.5651    0.0000 C   0  0  0  0  0  0  0  0  0  0  0  0
    4.0911    0.9776    0.0000 C   0  0  0  0  0  0  0  0  0  0  0  0
    4.0911    1.8026    0.0000 O   0  0  0  0  0  0  0  0  0  0  0  0
    3.3767    0.5651    0.0000 C   0  0  0  0  0  0  0  0  0  0  0  0
    2.6622   -1.4974    0.0000 O   0  0  0  0  0  0  0  0  0  0  0  0
  1  2  1  0  0  0  0
  2  3  1  0  0  0  0
  1  4  1  0  0  0  0
  4  5  1  0  0  0  0
  6  5  1  0  0  0  0
  7  6  2  0  0  0  0
  8  7  1  0  0  0  0
  9  8  2  0  0  0  0
  9 10  1  0  0  0  0
 11  9  1  0  0  0  0
  5 11  2  0  0  0  0
  4 12  2  0  0  0  0
M  END
> <ChemID>
101129

> <CAS>
7781-98-8

> <Original_SMILES>
CCOC(=O)c1cccc(O)c1

> <preferred_name>
Ethyl 3-hydroxybenzoate

> <dsstox_substance_id>
DTXSID10228435

> <dsstox_compound_id>
DTXCID30150926

> <qc_level>
Public_Medium

> <Canonical_QSARr>
CCOC(=O)C1C=CC=C(O)C=1

> <InChI_Code_QSARr>
InChI=1S/C9H10O3/c1-2-12-9(11)7-4-3-5-8(10)6-7/h3-6,10H,2H2,1H3

> <InChI Key_QSARr>
MWSMNBYIEBRXAL-UHFFFAOYSA-N

> <Salt_Solvent>


> <Salt_Solvent_ID>
0

> <MPID>
101110

> <Tr_1_Tst_0>
1

> <Ready_Biodeg>
1.0

$$$$
Row1080
  Mrv171c012251911052D          

 10 10  0  0  0  0            999 V2000
    2.5074   -1.4437    0.0000 O   0  0  0  0  0  0  0  0  0  0  0  0
    3.2218   -1.0312    0.0000 C   0  0  0  0  0  0  0  0  0  0  0  0
    3.2218   -0.2062    0.0000 C   0  0  0  0  0  0  0  0  0  0  0  0
    2.5074    0.2063    0.0000 N   0  0  0  0  0  0  0  0  0  0  0  0
    2.5074    1.0313    0.0000 C   0  0  0  0  0  0  0  0  0  0  0  0
    3.2218    1.4438    0.0000 C   0  0  0  0  0  0  0  0  0  0  0  0
    3.2218    2.2688    0.0000 C   0  0  0  0  0  0  0  0  0  0  0  0
    3.9363    1.0313    0.0000 C   0  0  0  0  0  0  0  0  0  0  0  0
    1.7929   -0.2062    0.0000 C   0  0  0  0  0  0  0  0  0  0  0  0
    1.7929   -1.0312    0.0000 C   0  0  0  0  0  0  0  0  0  0  0  0
  2  1  1  0  0  0  0
  3  2  1  0  0  0  0
  4  3  1  0  0  0  0
  4  5  1  0  0  0  0
  5  6  1  0  0  0  0
  6  7  1  0  0  0  0
  6  8  1  0  0  0  0
  9  4  1  0  0  0  0
 10  9  1  0  0  0  0
  1 10  1  0  0  0  0
M  END
> <ChemID>
101130

> <CAS>
10315-98-7

> <Original_SMILES>
CC(C)CN1CCOCC1

> <preferred_name>
4-Isobutylmorpholine

> <dsstox_substance_id>
DTXSID30145675

> <dsstox_compound_id>
DTXCID9068166

> <qc_level>
Public_Medium

> <Canonical_QSARr>
CC(C)CN1CCOCC1

> <InChI_Code_QSARr>
InChI=1S/C8H17NO/c1-8(2)7-9-3-5-10-6-4-9/h8H,3-7H2,1-2H3

> <InChI Key_QSARr>
QKVSMSABRNCNRS-UHFFFAOYSA-N

> <Salt_Solvent>


> <Salt_Solvent_ID>
0

> <MPID>
101111

> <Tr_1_Tst_0>
0

> <Ready_Biodeg>
0.0

$$$$
Row1081
  Mrv171c012251911052D          

 12 12  0  0  0  0            999 V2000
    2.8851   -2.9470    0.0000 C   0  0  0  0  0  0  0  0  0  0  0  0
    2.8851   -2.1220    0.0000 C   0  0  0  0  0  0  0  0  0  0  0  0
    2.1706   -1.7095    0.0000 C   0  0  0  0  0  0  0  0  0  0  0  0
    2.1706   -0.8845    0.0000 C   0  0  0  0  0  0  0  0  0  0  0  0
    1.4561   -0.4720    0.0000 C   0  0  0  0  0  0  0  0  0  0  0  0
    0.7416   -0.0595    0.0000 N   0  0  0  0  0  0  0  0  0  0  0  0
    1.0436   -1.1865    0.0000 C   0  0  0  0  0  0  0  0  0  0  0  0
    1.8686    0.2424    0.0000 C   0  0  0  0  0  0  0  0  0  0  0  0
    1.4561   -2.1220    0.0000 C   0  0  0  0  0  0  0  0  0  0  0  0
    0.7416   -1.7095    0.0000 Cl  0  0  0  0  0  0  0  0  0  0  0  0
    1.4561   -2.9470    0.0000 C   0  0  0  0  0  0  0  0  0  0  0  0
    2.1706   -3.3595    0.0000 C   0  0  0  0  0  0  0  0  0  0  0  0
  2  1  1  0  0  0  0
  3  2  2  0  0  0  0
  3  4  1  0  0  0  0
  4  5  1  0  0  0  0
  5  6  1  0  0  0  0
  5  7  1  0  0  0  0
  5  8  1  0  0  0  0
  9  3  1  0  0  0  0
  9 10  1  0  0  0  0
 11  9  2  0  0  0  0
 12 11  1  0  0  0  0
  1 12  2  0  0  0  0
M  END
> <ChemID>
101131

> <CAS>
10389-73-8

> <Original_SMILES>
CC(C)(N)Cc1ccccc1Cl

> <preferred_name>
Clortermine

> <dsstox_substance_id>
DTXSID0022850

> <dsstox_compound_id>
DTXCID302850

> <qc_level>
DSSTox_High

> <Canonical_QSARr>
CC(C)(N)CC1=CC=CC=C1Cl

> <InChI_Code_QSARr>
InChI=1S/C10H14ClN/c1-10(2,12)7-8-5-3-4-6-9(8)11/h3-6H,7,12H2,1-2H3

> <InChI Key_QSARr>
HXCXASJHZQXCKK-UHFFFAOYSA-N

> <Salt_Solvent>


> <Salt_Solvent_ID>
0

> <MPID>
101112

> <Tr_1_Tst_0>
1

> <Ready_Biodeg>
0.0

$$$$
Row1082
  Mrv171c012251911052D          

 11 11  0  0  0  0            999 V2000
   -0.0000   -2.0250    0.0000 C   0  0  0  0  0  0  0  0  0  0  0  0
    0.7145   -1.6125    0.0000 N   0  0  0  0  0  0  0  0  0  0  0  0
    0.7145   -0.7875    0.0000 C   0  0  0  0  0  0  0  0  0  0  0  0
    1.4289   -0.3750    0.0000 C   0  0  0  0  0  0  0  0  0  0  0  0
    1.4289    0.4500    0.0000 C   0  0  0  0  0  0  0  0  0  0  0  0
    0.7145    0.8625    0.0000 C   0  0  0  0  0  0  0  0  0  0  0  0
    0.7145    1.6875    0.0000 C   0  0  0  0  0  0  0  0  0  0  0  0
   -0.0000    2.1000    0.0000 O   0  0  0  0  0  0  0  0  0  0  0  0
    1.4289    2.1000    0.0000 O   0  0  0  0  0  0  0  0  0  0  0  0
   -0.0000    0.4500    0.0000 C   0  0  0  0  0  0  0  0  0  0  0  0
   -0.0000   -0.3750    0.0000 C   0  0  0  0  0  0  0  0  0  0  0  0
  1  2  1  0  0  0  0
  2  3  1  0  0  0  0
  4  3  1  0  0  0  0
  5  4  2  0  0  0  0
  6  5  1  0  0  0  0
  6  7  1  0  0  0  0
  7  8  2  0  0  0  0
  7  9  1  0  0  0  0
 10  6  2  0  0  0  0
 11 10  1  0  0  0  0
  3 11  2  0  0  0  0
M  END
> <ChemID>
101133

> <CAS>
10541-83-0

> <Original_SMILES>
CNc1ccc(cc1)C(O)=O

> <preferred_name>
Benzoic acid, 4-(methylamino)-

> <dsstox_substance_id>
DTXSID8065117

> <dsstox_compound_id>
DTXCID4032956

> <qc_level>
Public_High

> <Canonical_QSARr>
CNC1C=CC(=CC=1)C(O)=O

> <InChI_Code_QSARr>
InChI=1S/C8H9NO2/c1-9-7-4-2-6(3-5-7)8(10)11/h2-5,9H,1H3,(H,10,11)

> <InChI Key_QSARr>
ZVIDMSBTYRSMAR-UHFFFAOYSA-N

> <Salt_Solvent>


> <Salt_Solvent_ID>
0

> <MPID>
101114

> <Tr_1_Tst_0>
1

> <Ready_Biodeg>
0.0

$$$$
Row1083
  Mrv171c012251911052D          

 14 15  0  0  0  0            999 V2000
    1.0943   -0.7248    0.0000 N   0  0  0  0  0  0  0  0  0  0  0  0
    1.9193   -0.7248    0.0000 C   0  0  0  0  0  0  0  0  0  0  0  0
    2.4042   -0.0574    0.0000 N   0  0  0  0  0  0  0  0  0  0  0  0
    3.1888   -0.3123    0.0000 C   0  0  0  0  0  0  0  0  0  0  0  0
    3.9033    0.1002    0.0000 C   0  0  0  0  0  0  0  0  0  0  0  0
    4.6177   -0.3123    0.0000 C   0  0  0  0  0  0  0  0  0  0  0  0
    4.6177   -1.1373    0.0000 C   0  0  0  0  0  0  0  0  0  0  0  0
    3.9033   -1.5498    0.0000 C   0  0  0  0  0  0  0  0  0  0  0  0
    3.1888   -1.1373    0.0000 C   0  0  0  0  0  0  0  0  0  0  0  0
    2.4042   -1.3923    0.0000 N   0  0  0  0  0  0  0  0  0  0  0  0
    0.6818   -1.4393    0.0000 C   0  0  0  0  0  0  0  0  0  0  0  0
   -0.1432   -1.4393    0.0000 O   0  0  0  0  0  0  0  0  0  0  0  0
   -0.5557   -2.1538    0.0000 C   0  0  0  0  0  0  0  0  0  0  0  0
    1.0943   -2.1538    0.0000 O   0  0  0  0  0  0  0  0  0  0  0  0
  1  2  1  0  0  0  0
  3  2  1  0  0  0  0
  4  3  1  0  0  0  0
  4  5  2  0  0  0  0
  5  6  1  0  0  0  0
  6  7  2  0  0  0  0
  7  8  1  0  0  0  0
  8  9  2  0  0  0  0
  9  4  1  0  0  0  0
 10  9  1  0  0  0  0
  2 10  2  0  0  0  0
  1 11  1  0  0  0  0
 11 12  1  0  0  0  0
 12 13  1  0  0  0  0
 11 14  2  0  0  0  0
M  END
> <ChemID>
101134

> <CAS>
10605-21-7

> <Original_SMILES>
COC(=O)Nc1[nH]c2ccccc2[n]1

> <preferred_name>
Carbendazim

> <dsstox_substance_id>
DTXSID4024729

> <dsstox_compound_id>
DTXCID004729

> <qc_level>
DSSTox_High

> <Canonical_QSARr>
COC(=O)NC1NC2=CC=CC=C2N=1

> <InChI_Code_QSARr>
InChI=1S/C9H9N3O2/c1-14-9(13)12-8-10-6-4-2-3-5-7(6)11-8/h2-5H,1H3,(H2,10,11,12,13)

> <InChI Key_QSARr>
TWFZGCMQGLPBSX-UHFFFAOYSA-N

> <Salt_Solvent>


> <Salt_Solvent_ID>
0

> <MPID>
101115

> <Tr_1_Tst_0>
1

> <Ready_Biodeg>
0.0

$$$$
Row1084
  Mrv171c012251911052D          

 10  9  0  0  0  0            999 V2000
   -0.7144   -0.4125    0.0000 S   0  0  0  0  0  0  0  0  0  0  0  0
    0.0000   -0.0000    0.0000 C   0  0  0  0  0  0  0  0  0  0  0  0
    0.0000    0.8250    0.0000 S   0  0  0  0  0  0  0  0  0  0  0  0
    0.7145   -0.4125    0.0000 N   0  0  0  0  0  0  0  0  0  0  0  0
    1.4290   -0.0000    0.0000 C   0  0  0  0  0  0  0  0  0  0  0  0
    2.1435   -0.4125    0.0000 C   0  0  0  0  0  0  0  0  0  0  0  0
    2.8579   -0.0000    0.0000 N   0  0  0  0  0  0  0  0  0  0  0  0
    3.5724   -0.4125    0.0000 C   0  0  0  0  0  0  0  0  0  0  0  0
    4.2869   -0.0000    0.0000 S   0  0  0  0  0  0  0  0  0  0  0  0
    3.5724   -1.2375    0.0000 S   0  0  0  0  0  0  0  0  0  0  0  0
  1  2  1  0  0  0  0
  2  3  2  0  0  0  0
  2  4  1  0  0  0  0
  4  5  1  0  0  0  0
  5  6  1  0  0  0  0
  6  7  1  0  0  0  0
  7  8  1  0  0  0  0
  8  9  1  0  0  0  0
  8 10  2  0  0  0  0
M  END
> <ChemID>
101135

> <CAS>
12427-38-2

> <Original_SMILES>
[Mn+2].[S-]C(=S)NCCNC([S-])=S

> <preferred_name>
Maneb

> <dsstox_substance_id>
DTXSID9020794

> <dsstox_compound_id>
DTXCID70794

> <qc_level>
DSSTox_High

> <Canonical_QSARr>
SC(=S)NCCNC(S)=S

> <InChI_Code_QSARr>
InChI=1S/C4H8N2S4/c7-3(8)5-1-2-6-4(9)10/h1-2H2,(H2,5,7,8)(H2,6,9,10)

> <InChI Key_QSARr>
AWYFNIZYMPNGAI-UHFFFAOYSA-N

> <Salt_Solvent>
[Mn+2]

> <Salt_Solvent_ID>
250

> <MPID>
101116

> <Tr_1_Tst_0>
1

> <Ready_Biodeg>
0.0

$$$$
Row1085
  Mrv171c012251911052D          

 12 12  0  0  0  0            999 V2000
    2.3190   -2.0432    0.0000 C   0  0  0  0  0  0  0  0  0  0  0  0
    2.3190   -1.2182    0.0000 C   0  0  0  0  0  0  0  0  0  0  0  0
    3.0335   -0.8057    0.0000 C   0  0  0  0  0  0  0  0  0  0  0  0
    3.0335    0.0193    0.0000 C   0  0  0  0  0  0  0  0  0  0  0  0
    2.3190    0.4318    0.0000 C   0  0  0  0  0  0  0  0  0  0  0  0
    2.3190    1.2568    0.0000 Cl  0  0  0  0  0  0  0  0  0  0  0  0
    1.6045    0.0193    0.0000 C   0  0  0  0  0  0  0  0  0  0  0  0
    1.6045   -0.8057    0.0000 C   0  0  0  0  0  0  0  0  0  0  0  0
    0.8900   -1.2182    0.0000 Cl  0  0  0  0  0  0  0  0  0  0  0  0
    2.3190   -2.8682    0.0000 Cl  0  0  0  0  0  0  0  0  0  0  0  0
    1.4940   -2.0432    0.0000 Cl  0  0  0  0  0  0  0  0  0  0  0  0
    3.1440   -2.0432    0.0000 Cl  0  0  0  0  0  0  0  0  0  0  0  0
  1  2  1  0  0  0  0
  3  2  1  0  0  0  0
  4  3  2  0  0  0  0
  5  4  1  0  0  0  0
  5  6  1  0  0  0  0
  7  5  2  0  0  0  0
  8  7  1  0  0  0  0
  2  8  2  0  0  0  0
  8  9  1  0  0  0  0
  1 10  1  0  0  0  0
  1 11  1  0  0  0  0
  1 12  1  0  0  0  0
M  END
> <ChemID>
101137

> <CAS>
13014-18-1

> <Original_SMILES>
Clc1cc(Cl)c(cc1)C(Cl)(Cl)Cl

> <preferred_name>
2,4-Dichloro-1-(trichloromethyl)benzene

> <dsstox_substance_id>
DTXSID3025839

> <dsstox_compound_id>
DTXCID605839

> <qc_level>
DSSTox_Low

> <Canonical_QSARr>
ClC1=CC(Cl)=C(C=C1)C(Cl)(Cl)Cl

> <InChI_Code_QSARr>
InChI=1S/C7H3Cl5/c8-4-1-2-5(6(9)3-4)7(10,11)12/h1-3H

> <InChI Key_QSARr>
KZSNBJMYJWDVTK-UHFFFAOYSA-N

> <Salt_Solvent>


> <Salt_Solvent_ID>
0

> <MPID>
101118

> <Tr_1_Tst_0>
0

> <Ready_Biodeg>
0.0

$$$$
Row1086
  Mrv171c012251911052D          

 14 15  0  0  0  0            999 V2000
    2.1410   -1.6566    0.0000 C   0  0  0  0  0  0  0  0  0  0  0  0
    2.1410   -2.4816    0.0000 C   0  0  0  0  0  0  0  0  0  0  0  0
    2.8555   -2.8941    0.0000 C   0  0  0  0  0  0  0  0  0  0  0  0
    3.5700   -2.4816    0.0000 C   0  0  0  0  0  0  0  0  0  0  0  0
    3.5700   -1.6566    0.0000 C   0  0  0  0  0  0  0  0  0  0  0  0
    2.8555   -1.2441    0.0000 C   0  0  0  0  0  0  0  0  0  0  0  0
    2.8555   -0.4191    0.0000 Cl  0  0  0  0  0  0  0  0  0  0  0  0
    1.4265   -1.2441    0.0000 C   0  0  0  0  0  0  0  0  0  0  0  0
    1.4265   -0.4191    0.0000 C   0  0  0  0  0  0  0  0  0  0  0  0
    0.7121   -0.0066    0.0000 C   0  0  0  0  0  0  0  0  0  0  0  0
   -0.0024   -0.4191    0.0000 C   0  0  0  0  0  0  0  0  0  0  0  0
   -0.0024   -1.2441    0.0000 C   0  0  0  0  0  0  0  0  0  0  0  0
    0.7121   -1.6566    0.0000 C   0  0  0  0  0  0  0  0  0  0  0  0
    0.7121   -2.4816    0.0000 Cl  0  0  0  0  0  0  0  0  0  0  0  0
  2  1  1  0  0  0  0
  3  2  2  0  0  0  0
  4  3  1  0  0  0  0
  5  4  2  0  0  0  0
  6  5  1  0  0  0  0
  1  6  2  0  0  0  0
  6  7  1  0  0  0  0
  1  8  1  0  0  0  0
  9  8  1  0  0  0  0
 10  9  2  0  0  0  0
 11 10  1  0  0  0  0
 12 11  2  0  0  0  0
 13 12  1  0  0  0  0
  8 13  2  0  0  0  0
 13 14  1  0  0  0  0
M  END
> <ChemID>
101138

> <CAS>
13029-08-8

> <Original_SMILES>
Clc1ccccc1-c1ccccc1Cl

> <preferred_name>
2,2'-Dichlorobiphenyl

> <dsstox_substance_id>
DTXSID4044533

> <dsstox_compound_id>
DTXCID2024533

> <qc_level>
DSSTox_Low

> <Canonical_QSARr>
ClC1C=CC=CC=1C1C=CC=CC=1Cl

> <InChI_Code_QSARr>
InChI=1S/C12H8Cl2/c13-11-7-3-1-5-9(11)10-6-2-4-8-12(10)14/h1-8H

> <InChI Key_QSARr>
JAYCNKDKIKZTAF-UHFFFAOYSA-N

> <Salt_Solvent>


> <Salt_Solvent_ID>
0

> <MPID>
101119

> <Tr_1_Tst_0>
1

> <Ready_Biodeg>
0.0

$$$$
Row1087
  Mrv171c012251911052D          

  7  6  0  0  0  0            999 V2000
    1.6467   -1.5359    0.0000 C   0  0  0  0  0  0  0  0  0  0  0  0
    2.4717   -1.5359    0.0000 Cl  0  0  0  0  0  0  0  0  0  0  0  0
    1.2342   -0.8214    0.0000 C   0  0  0  0  0  0  0  0  0  0  0  0
    1.9487   -0.4089    0.0000 Cl  0  0  0  0  0  0  0  0  0  0  0  0
    0.5197   -1.2339    0.0000 Cl  0  0  0  0  0  0  0  0  0  0  0  0
    0.8217   -0.1069    0.0000 C   0  0  0  0  0  0  0  0  0  0  0  0
   -0.0033   -0.1069    0.0000 Cl  0  0  0  0  0  0  0  0  0  0  0  0
  1  2  1  0  0  0  0
  1  3  1  0  0  0  0
  3  4  1  0  0  0  0
  3  5  1  0  0  0  0
  3  6  1  0  0  0  0
  6  7  1  0  0  0  0
M  END
> <ChemID>
101139

> <CAS>
13116-53-5

> <Original_SMILES>
ClC(Cl)(CCl)CCl

> <preferred_name>
1,2,2,3-Tetrachloropropane

> <dsstox_substance_id>
DTXSID5051656

> <dsstox_compound_id>
DTXCID9030208

> <qc_level>
DSSTox_Low

> <Canonical_QSARr>
ClC(Cl)(CCl)CCl

> <InChI_Code_QSARr>
InChI=1S/C3H4Cl4/c4-1-3(6,7)2-5/h1-2H2

> <InChI Key_QSARr>
UDPHJTAYHSSOQB-UHFFFAOYSA-N

> <Salt_Solvent>


> <Salt_Solvent_ID>
0

> <MPID>
101120

> <Tr_1_Tst_0>
1

> <Ready_Biodeg>
0.0

$$$$
Row1088
  Mrv171c012251911052D          

 25 27  0  0  0  0            999 V2000
    0.9742   -3.0434    0.0000 C   0  0  0  0  0  0  0  0  0  0  0  0
    0.9742   -3.8684    0.0000 C   0  0  0  0  0  0  0  0  0  0  0  0
    0.2598   -4.2809    0.0000 C   0  0  0  0  0  0  0  0  0  0  0  0
    1.6887   -4.2809    0.0000 C   0  0  0  0  0  0  0  0  0  0  0  0
    0.2598   -2.6309    0.0000 C   0  0  0  0  0  0  0  0  0  0  0  0
    0.2598   -1.8059    0.0000 C   0  0  0  0  0  0  0  0  0  0  0  0
    0.9742   -1.3934    0.0000 C   0  0  0  0  0  0  0  0  0  0  0  0
    0.9742   -0.5684    0.0000 C   0  0  0  0  0  0  0  0  0  0  0  0
    0.8367   -1.9434    0.0000 C   0  0  0  0  0  0  0  0  0  0  0  0
    0.8367   -2.4934    0.0000 C   0  0  0  0  0  0  0  0  0  0  0  0
    1.6887   -1.8059    0.0000 C   0  0  0  0  0  0  0  0  0  0  0  0
    2.4733   -1.5509    0.0000 C   0  0  0  0  0  0  0  0  0  0  0  0
    2.7283   -0.7663    0.0000 O   0  0  0  0  0  0  0  0  0  0  0  0
    2.9582   -2.2184    0.0000 N   0  0  0  0  0  0  0  0  0  0  0  0
    3.7832   -2.2184    0.0000 C   0  0  0  0  0  0  0  0  0  0  0  0
    4.1957   -1.5039    0.0000 C   0  0  0  0  0  0  0  0  0  0  0  0
    3.7832   -0.7894    0.0000 C   0  0  0  0  0  0  0  0  0  0  0  0
    4.1957   -0.0750    0.0000 C   0  0  0  0  0  0  0  0  0  0  0  0
    5.0207   -1.5039    0.0000 C   0  0  0  0  0  0  0  0  0  0  0  0
    5.4332   -0.7894    0.0000 C   0  0  0  0  0  0  0  0  0  0  0  0
    6.2582   -0.7894    0.0000 C   0  0  0  0  0  0  0  0  0  0  0  0
    6.6707   -0.0750    0.0000 C   0  0  0  0  0  0  0  0  0  0  0  0
    2.4733   -2.8858    0.0000 C   0  0  0  0  0  0  0  0  0  0  0  0
    2.7283   -3.6704    0.0000 O   0  0  0  0  0  0  0  0  0  0  0  0
    1.6887   -2.6309    0.0000 C   0  0  0  0  0  0  0  0  0  0  0  0
  1  2  1  0  0  0  0
  2  3  1  0  0  0  0
  2  4  1  0  0  0  0
  5  1  1  0  0  0  0
  6  5  2  0  0  0  0
  7  6  1  0  0  0  0
  7  8  1  0  0  0  0
  7  9  1  0  0  0  0
  9 10  1  0  0  0  0
 10  1  1  0  0  0  0
 11  7  1  0  0  0  0
 11 12  1  0  0  0  0
 12 13  2  0  0  0  0
 12 14  1  0  0  0  0
 14 15  1  0  0  0  0
 15 16  1  0  0  0  0
 16 17  1  0  0  0  0
 17 18  1  0  0  0  0
 16 19  1  0  0  0  0
 19 20  1  0  0  0  0
 20 21  1  0  0  0  0
 21 22  1  0  0  0  0
 14 23  1  0  0  0  0
 23 24  2  0  0  0  0
 23 25  1  0  0  0  0
  1 25  1  0  0  0  0
 25 11  1  0  0  0  0
M  END
> <ChemID>
101140

> <CAS>
13358-11-7

> <Original_SMILES>
CC12CCC(C=C1)(C1C2C(=O)N(CC(CCCC)CC)C1=O)C(C)C

> <preferred_name>
N-(2-Ethylhexyl)-1-isopropyl-4-methylbiclyclo[2:2:2]oct-5-ene-2,3-dicarboximide

> <dsstox_substance_id>
DTXSID9042176

> <dsstox_compound_id>
DTXCID7022176

> <qc_level>
DSSTox_Low

> <Canonical_QSARr>
CC12CCC(C=C1)(C1C2C(=O)N(CC(CCCC)CC)C1=O)C(C)C

> <InChI_Code_QSARr>
InChI=1S/C22H35NO2/c1-6-8-9-16(7-2)14-23-19(24)17-18(20(23)25)22(15(3)4)12-10-21(17,5)11-13-22/h10,12,15-18H,6-9,11,13-14H2,1-5H3

> <InChI Key_QSARr>
MVKYQJHRHHQPDM-UHFFFAOYSA-N

> <Salt_Solvent>


> <Salt_Solvent_ID>
0

> <MPID>
101121

> <Tr_1_Tst_0>
1

> <Ready_Biodeg>
0.0

$$$$
Row1089
  Mrv171c012251911052D          

  7  6  0  0  0  0            999 V2000
    1.4270   -0.0582    0.0000 N   0  0  0  0  0  0  0  0  0  0  0  0
    0.7125   -0.4707    0.0000 C   0  0  0  0  0  0  0  0  0  0  0  0
   -0.0019   -0.0582    0.0000 C   0  0  0  0  0  0  0  0  0  0  0  0
    2.1415   -0.4707    0.0000 C   0  0  0  0  0  0  0  0  0  0  0  0
    2.8560   -0.0582    0.0000 C   0  0  0  0  0  0  0  0  0  0  0  0
    3.5704   -0.4707    0.0000 C   0  0  0  0  0  0  0  0  0  0  0  0
    4.2849   -0.0582    0.0000 C   0  0  0  0  0  0  0  0  0  0  0  0
  1  2  1  0  0  0  0
  2  3  1  0  0  0  0
  1  4  1  0  0  0  0
  4  5  1  0  0  0  0
  5  6  1  0  0  0  0
  6  7  1  0  0  0  0
M  END
> <ChemID>
101141

> <CAS>
13360-63-9

> <Original_SMILES>
CCCCNCC

> <preferred_name>
N-Ethyl-N-butylamine

> <dsstox_substance_id>
DTXSID6025276

> <dsstox_compound_id>
DTXCID405276

> <qc_level>
DSSTox_Low

> <Canonical_QSARr>
CCCCNCC

> <InChI_Code_QSARr>
InChI=1S/C6H15N/c1-3-5-6-7-4-2/h7H,3-6H2,1-2H3

> <InChI Key_QSARr>
QHCCDDQKNUYGNC-UHFFFAOYSA-N

> <Salt_Solvent>


> <Salt_Solvent_ID>
0

> <MPID>
101122

> <Tr_1_Tst_0>
0

> <Ready_Biodeg>
1.0

$$$$
Row1090
  Mrv171c012251911052D          

 30 34  0  0  0  0            999 V2000
    4.0213   -1.2016    0.0000 C   0  0  0  0  0  0  0  0  0  0  0  0
    4.8485   -0.7589    0.0000 C   0  0  0  0  0  0  0  0  0  0  0  0
    4.9952    0.1205    0.0000 Cl  0  0  0  0  0  0  0  0  0  0  0  0
    5.0548   -1.5839    0.0000 C   0  0  0  0  0  0  0  0  0  0  0  0
    4.4330   -1.0166    0.0000 Cl  0  0  0  0  0  0  0  0  0  0  0  0
    4.5193   -2.1082    0.0000 Cl  0  0  0  0  0  0  0  0  0  0  0  0
    4.8485   -2.4089    0.0000 C   0  0  0  0  0  0  0  0  0  0  0  0
    4.9804   -3.2912    0.0000 Cl  0  0  0  0  0  0  0  0  0  0  0  0
    5.5630   -1.9964    0.0000 C   0  0  0  0  0  0  0  0  0  0  0  0
    6.3221   -2.4291    0.0000 Cl  0  0  0  0  0  0  0  0  0  0  0  0
    5.5630   -1.1714    0.0000 C   0  0  0  0  0  0  0  0  0  0  0  0
    6.3215   -0.7387    0.0000 Cl  0  0  0  0  0  0  0  0  0  0  0  0
    4.1340   -1.9964    0.0000 C   0  0  0  0  0  0  0  0  0  0  0  0
    3.5507   -2.5797    0.0000 C   0  0  0  0  0  0  0  0  0  0  0  0
    2.7257   -2.5797    0.0000 C   0  0  0  0  0  0  0  0  0  0  0  0
    2.2550   -1.9662    0.0000 C   0  0  0  0  0  0  0  0  0  0  0  0
    1.4278   -2.4089    0.0000 C   0  0  0  0  0  0  0  0  0  0  0  0
    1.2812   -3.2883    0.0000 Cl  0  0  0  0  0  0  0  0  0  0  0  0
    1.2216   -1.5839    0.0000 C   0  0  0  0  0  0  0  0  0  0  0  0
    1.8434   -2.1512    0.0000 Cl  0  0  0  0  0  0  0  0  0  0  0  0
    1.7571   -1.0595    0.0000 Cl  0  0  0  0  0  0  0  0  0  0  0  0
    1.4278   -0.7589    0.0000 C   0  0  0  0  0  0  0  0  0  0  0  0
    1.2960    0.1234    0.0000 Cl  0  0  0  0  0  0  0  0  0  0  0  0
    2.1423   -1.1714    0.0000 C   0  0  0  0  0  0  0  0  0  0  0  0
    2.7257   -0.5880    0.0000 C   0  0  0  0  0  0  0  0  0  0  0  0
    3.5507   -0.5880    0.0000 C   0  0  0  0  0  0  0  0  0  0  0  0
    0.7134   -1.1714    0.0000 C   0  0  0  0  0  0  0  0  0  0  0  0
   -0.0456   -0.7387    0.0000 Cl  0  0  0  0  0  0  0  0  0  0  0  0
    0.7134   -1.9964    0.0000 C   0  0  0  0  0  0  0  0  0  0  0  0
   -0.0451   -2.4291    0.0000 Cl  0  0  0  0  0  0  0  0  0  0  0  0
  2  1  1  0  0  0  0
  2  3  1  0  0  0  0
  2  4  1  0  0  0  0
  4  5  1  0  0  0  0
  4  6  1  0  0  0  0
  4  7  1  0  0  0  0
  7  8  1  0  0  0  0
  7  9  1  0  0  0  0
  9 10  1  0  0  0  0
  9 11  2  0  0  0  0
 11  2  1  0  0  0  0
 11 12  1  0  0  0  0
 13  7  1  0  0  0  0
 13  1  1  0  0  0  0
 14 13  1  0  0  0  0
 15 14  1  0  0  0  0
 16 15  1  0  0  0  0
 16 17  1  0  0  0  0
 17 18  1  0  0  0  0
 19 17  1  0  0  0  0
 19 20  1  0  0  0  0
 19 21  1  0  0  0  0
 22 19  1  0  0  0  0
 22 23  1  0  0  0  0
 22 24  1  0  0  0  0
 24 16  1  0  0  0  0
 25 24  1  0  0  0  0
 26 25  1  0  0  0  0
  1 26  1  0  0  0  0
 27 22  1  0  0  0  0
 27 28  1  0  0  0  0
 29 27  2  0  0  0  0
 17 29  1  0  0  0  0
 29 30  1  0  0  0  0
M  END
> <ChemID>
101142

> <CAS>
13560-89-9

> <Original_SMILES>
ClC1(Cl)C2(Cl)C3CCC4C(CCC3C1(Cl)C(Cl)=C2Cl)C1(Cl)C(Cl)=C(Cl)C4(Cl)C1(Cl)Cl

> <preferred_name>
1,4:7,10-Dimethanodibenzo[a,e]cyclooctene, 1,2,3,4,7,8,9,10,13,13,14,14-dodecachloro-1,4,4a,5,6,6a,7,10,10a,11,12,12a-dodecahydro-

> <dsstox_substance_id>
DTXSID7027750

> <dsstox_compound_id>
DTXCID607750

> <qc_level>
DSSTox_Low

> <Canonical_QSARr>
ClC1(Cl)C2(Cl)C3CCC4C(CCC3C1(Cl)C(Cl)=C2Cl)C1(Cl)C(Cl)=C(Cl)C4(Cl)C1(Cl)Cl

> <InChI_Code_QSARr>
InChI=1S/C18H12Cl12/c19-9-10(20)15(25)7-3-4-8-6(2-1-5(7)13(9,23)17(15,27)28)14(24)11(21)12(22)16(8,26)18(14,29)30/h5-8H,1-4H2

> <InChI Key_QSARr>
UGQQAJOWXNCOPY-UHFFFAOYSA-N

> <Salt_Solvent>


> <Salt_Solvent_ID>
0

> <MPID>
101123

> <Tr_1_Tst_0>
1

> <Ready_Biodeg>
0.0

$$$$
Row1091
  Mrv171c012251911052D          

 11 10  0  0  0  0            999 V2000
    1.9810   -1.1369    0.0000 C   0  0  0  0  0  0  0  0  0  0  0  0
    1.2665   -1.5494    0.0000 C   0  0  0  0  0  0  0  0  0  0  0  0
    0.5520   -1.1369    0.0000 C   0  0  0  0  0  0  0  0  0  0  0  0
   -0.1624   -1.5494    0.0000 O   0  0  0  0  0  0  0  0  0  0  0  0
    0.5520   -0.3119    0.0000 C   0  0  0  0  0  0  0  0  0  0  0  0
    2.6955   -1.5494    0.0000 O   0  0  0  0  0  0  0  0  0  0  0  0
    3.4099   -1.1369    0.0000 C   0  0  0  0  0  0  0  0  0  0  0  0
    3.4099   -0.3119    0.0000 C   0  0  0  0  0  0  0  0  0  0  0  0
    4.1244   -1.5494    0.0000 C   0  0  0  0  0  0  0  0  0  0  0  0
    4.8389   -1.1369    0.0000 C   0  0  0  0  0  0  0  0  0  0  0  0
    1.9810   -0.3119    0.0000 O   0  0  0  0  0  0  0  0  0  0  0  0
  1  2  1  0  0  0  0
  2  3  1  0  0  0  0
  3  4  2  0  0  0  0
  3  5  1  0  0  0  0
  1  6  1  0  0  0  0
  6  7  1  0  0  0  0
  7  8  1  0  0  0  0
  7  9  1  0  0  0  0
  9 10  1  0  0  0  0
  1 11  2  0  0  0  0
M  END
> <ChemID>
101143

> <CAS>
13562-76-0

> <Original_SMILES>
CC(=O)CC(=O)OC(C)CC

> <preferred_name>


> <dsstox_substance_id>
DTXSID30875763

> <dsstox_compound_id>
DTXCID801013882

> <qc_level>


> <Canonical_QSARr>
CC(=O)CC(=O)OC(C)CC

> <InChI_Code_QSARr>
InChI=1S/C8H14O3/c1-4-7(3)11-8(10)5-6(2)9/h7H,4-5H2,1-3H3

> <InChI Key_QSARr>
QSTNBMLCULGCQE-UHFFFAOYSA-N

> <Salt_Solvent>


> <Salt_Solvent_ID>
0

> <MPID>
101124

> <Tr_1_Tst_0>
1

> <Ready_Biodeg>
1.0

$$$$
Row1092
  Mrv171c012251911052D          

 22 23  0  0  0  0            999 V2000
    0.3573    1.4438    0.0000 C   0  0  0  0  0  0  0  0  0  0  0  0
   -0.3572    1.8563    0.0000 C   0  0  0  0  0  0  0  0  0  0  0  0
   -0.3572    2.6813    0.0000 Br  0  0  0  0  0  0  0  0  0  0  0  0
   -1.0717    1.4438    0.0000 C   0  0  0  0  0  0  0  0  0  0  0  0
   -1.7862    1.8563    0.0000 Br  0  0  0  0  0  0  0  0  0  0  0  0
   -1.0717    0.6188    0.0000 C   0  0  0  0  0  0  0  0  0  0  0  0
   -1.7862    0.2063    0.0000 Br  0  0  0  0  0  0  0  0  0  0  0  0
   -0.3572    0.2063    0.0000 C   0  0  0  0  0  0  0  0  0  0  0  0
   -0.3572   -0.6187    0.0000 Br  0  0  0  0  0  0  0  0  0  0  0  0
    0.3573    0.6188    0.0000 C   0  0  0  0  0  0  0  0  0  0  0  0
    1.0717    0.2063    0.0000 Br  0  0  0  0  0  0  0  0  0  0  0  0
    1.0717    1.8563    0.0000 C   0  0  0  0  0  0  0  0  0  0  0  0
    1.7862    1.4438    0.0000 C   0  0  0  0  0  0  0  0  0  0  0  0
    1.7862    0.6188    0.0000 Br  0  0  0  0  0  0  0  0  0  0  0  0
    2.5007    1.8563    0.0000 C   0  0  0  0  0  0  0  0  0  0  0  0
    3.2151    1.4438    0.0000 Br  0  0  0  0  0  0  0  0  0  0  0  0
    2.5007    2.6813    0.0000 C   0  0  0  0  0  0  0  0  0  0  0  0
    3.2151    3.0938    0.0000 Br  0  0  0  0  0  0  0  0  0  0  0  0
    1.7862    3.0938    0.0000 C   0  0  0  0  0  0  0  0  0  0  0  0
    1.7862    3.9188    0.0000 Br  0  0  0  0  0  0  0  0  0  0  0  0
    1.0717    2.6813    0.0000 C   0  0  0  0  0  0  0  0  0  0  0  0
    0.3573    3.0938    0.0000 Br  0  0  0  0  0  0  0  0  0  0  0  0
  2  1  1  0  0  0  0
  2  3  1  0  0  0  0
  4  2  2  0  0  0  0
  4  5  1  0  0  0  0
  6  4  1  0  0  0  0
  6  7  1  0  0  0  0
  8  6  2  0  0  0  0
  8  9  1  0  0  0  0
 10  8  1  0  0  0  0
  1 10  2  0  0  0  0
 10 11  1  0  0  0  0
  1 12  1  0  0  0  0
 13 12  1  0  0  0  0
 13 14  1  0  0  0  0
 15 13  2  0  0  0  0
 15 16  1  0  0  0  0
 17 15  1  0  0  0  0
 17 18  1  0  0  0  0
 19 17  2  0  0  0  0
 19 20  1  0  0  0  0
 21 19  1  0  0  0  0
 12 21  2  0  0  0  0
 21 22  1  0  0  0  0
M  END
> <ChemID>
101144

> <CAS>
13654-09-6

> <Original_SMILES>
Brc1c(-c2c(Br)c(Br)c(Br)c(Br)c2Br)c(Br)c(Br)c(Br)c1Br

> <preferred_name>
1,1'-Biphenyl, 2,2',3,3',4,4',5,5',6,6'-decabromo-

> <dsstox_substance_id>
DTXSID9065572

> <dsstox_compound_id>
DTXCID8034372

> <qc_level>
Public_High

> <Canonical_QSARr>
BrC1C(C2=C(Br)C(Br)=C(Br)C(Br)=C2Br)=C(Br)C(Br)=C(Br)C=1Br

> <InChI_Code_QSARr>
InChI=1S/C12Br10/c13-3-1(4(14)8(18)11(21)7(3)17)2-5(15)9(19)12(22)10(20)6(2)16

> <InChI Key_QSARr>
AQPHBYQUCKHJLT-UHFFFAOYSA-N

> <Salt_Solvent>


> <Salt_Solvent_ID>
0

> <MPID>
101125

> <Tr_1_Tst_0>
1

> <Ready_Biodeg>
0.0

$$$$
Row1093
  Mrv171c012251911052D          

 17 16  0  0  0  0            999 V2000
    2.7303   -2.0944    0.0000 O   0  0  0  0  0  0  0  0  0  0  0  0
    2.3178   -2.8089    0.0000 P   0  0  0  0  0  0  0  0  0  0  0  0
    1.6034   -2.3964    0.0000 O   0  0  0  0  0  0  0  0  0  0  0  0
    1.6034   -1.5714    0.0000 C   0  0  0  0  0  0  0  0  0  0  0  0
    0.8889   -1.1589    0.0000 C   0  0  0  0  0  0  0  0  0  0  0  0
    2.3178   -1.1589    0.0000 C   0  0  0  0  0  0  0  0  0  0  0  0
    2.3178   -0.3339    0.0000 Cl  0  0  0  0  0  0  0  0  0  0  0  0
    3.0323   -3.2214    0.0000 O   0  0  0  0  0  0  0  0  0  0  0  0
    3.7468   -2.8089    0.0000 C   0  0  0  0  0  0  0  0  0  0  0  0
    3.7468   -1.9839    0.0000 C   0  0  0  0  0  0  0  0  0  0  0  0
    4.4612   -3.2214    0.0000 C   0  0  0  0  0  0  0  0  0  0  0  0
    5.1757   -2.8089    0.0000 Cl  0  0  0  0  0  0  0  0  0  0  0  0
    1.9053   -3.5234    0.0000 O   0  0  0  0  0  0  0  0  0  0  0  0
    1.0803   -3.5234    0.0000 C   0  0  0  0  0  0  0  0  0  0  0  0
    0.6678   -2.8089    0.0000 C   0  0  0  0  0  0  0  0  0  0  0  0
    0.6678   -4.2379    0.0000 C   0  0  0  0  0  0  0  0  0  0  0  0
   -0.1572   -4.2379    0.0000 Cl  0  0  0  0  0  0  0  0  0  0  0  0
  1  2  2  0  0  0  0
  2  3  1  0  0  0  0
  3  4  1  0  0  0  0
  4  5  1  0  0  0  0
  4  6  1  0  0  0  0
  6  7  1  0  0  0  0
  2  8  1  0  0  0  0
  8  9  1  0  0  0  0
  9 10  1  0  0  0  0
  9 11  1  0  0  0  0
 11 12  1  0  0  0  0
  2 13  1  0  0  0  0
 13 14  1  0  0  0  0
 14 15  1  0  0  0  0
 14 16  1  0  0  0  0
 16 17  1  0  0  0  0
M  END
> <ChemID>
101145

> <CAS>
13674-84-5

> <Original_SMILES>
CC(CCl)OP(=O)(OC(C)CCl)OC(C)CCl

> <preferred_name>
Tris(2-chloroisopropyl)phosphate

> <dsstox_substance_id>
DTXSID5026259

> <dsstox_compound_id>
DTXCID106259

> <qc_level>
DSSTox_High

> <Canonical_QSARr>
CC(CCl)OP(=O)(OC(C)CCl)OC(C)CCl

> <InChI_Code_QSARr>
InChI=1S/C9H18Cl3O4P/c1-7(4-10)14-17(13,15-8(2)5-11)16-9(3)6-12/h7-9H,4-6H2,1-3H3

> <InChI Key_QSARr>
KVMPUXDNESXNOH-UHFFFAOYSA-N

> <Salt_Solvent>


> <Salt_Solvent_ID>
0

> <MPID>
101126

> <Tr_1_Tst_0>
0

> <Ready_Biodeg>
0.0

$$$$
Row1094
  Mrv171c012251911052D          

 20 19  0  0  0  0            999 V2000
    4.5936   -3.9095    0.0000 O   0  0  0  0  0  0  0  0  0  0  0  0
    4.1811   -4.6240    0.0000 P   0  0  0  0  0  0  0  0  0  0  0  0
    3.4667   -4.2115    0.0000 O   0  0  0  0  0  0  0  0  0  0  0  0
    3.4667   -3.3865    0.0000 C   0  0  0  0  0  0  0  0  0  0  0  0
    4.1811   -2.9740    0.0000 C   0  0  0  0  0  0  0  0  0  0  0  0
    4.1811   -2.1490    0.0000 Cl  0  0  0  0  0  0  0  0  0  0  0  0
    2.7522   -2.9740    0.0000 C   0  0  0  0  0  0  0  0  0  0  0  0
    2.7522   -2.1490    0.0000 Cl  0  0  0  0  0  0  0  0  0  0  0  0
    4.8956   -5.0365    0.0000 O   0  0  0  0  0  0  0  0  0  0  0  0
    5.6101   -4.6240    0.0000 C   0  0  0  0  0  0  0  0  0  0  0  0
    6.3245   -5.0365    0.0000 C   0  0  0  0  0  0  0  0  0  0  0  0
    7.0390   -4.6240    0.0000 Cl  0  0  0  0  0  0  0  0  0  0  0  0
    5.6101   -3.7990    0.0000 C   0  0  0  0  0  0  0  0  0  0  0  0
    6.3245   -3.3865    0.0000 Cl  0  0  0  0  0  0  0  0  0  0  0  0
    3.7686   -5.3385    0.0000 O   0  0  0  0  0  0  0  0  0  0  0  0
    2.9436   -5.3385    0.0000 C   0  0  0  0  0  0  0  0  0  0  0  0
    2.5311   -4.6240    0.0000 C   0  0  0  0  0  0  0  0  0  0  0  0
    2.9436   -3.9095    0.0000 Cl  0  0  0  0  0  0  0  0  0  0  0  0
    2.5311   -6.0530    0.0000 C   0  0  0  0  0  0  0  0  0  0  0  0
    1.7061   -6.0530    0.0000 Cl  0  0  0  0  0  0  0  0  0  0  0  0
  1  2  2  0  0  0  0
  2  3  1  0  0  0  0
  3  4  1  0  0  0  0
  4  5  1  0  0  0  0
  5  6  1  0  0  0  0
  4  7  1  0  0  0  0
  7  8  1  0  0  0  0
  2  9  1  0  0  0  0
  9 10  1  0  0  0  0
 10 11  1  0  0  0  0
 11 12  1  0  0  0  0
 10 13  1  0  0  0  0
 13 14  1  0  0  0  0
  2 15  1  0  0  0  0
 15 16  1  0  0  0  0
 16 17  1  0  0  0  0
 17 18  1  0  0  0  0
 16 19  1  0  0  0  0
 19 20  1  0  0  0  0
M  END
> <ChemID>
101146

> <CAS>
13674-87-8

> <Original_SMILES>
O=P(OC(CCl)CCl)(OC(CCl)CCl)OC(CCl)CCl

> <preferred_name>
TDCPP

> <dsstox_substance_id>
DTXSID9026261

> <dsstox_compound_id>
DTXCID206261

> <qc_level>
DSSTox_High

> <Canonical_QSARr>
O=P(OC(CCl)CCl)(OC(CCl)CCl)OC(CCl)CCl

> <InChI_Code_QSARr>
InChI=1S/C9H15Cl6O4P/c10-1-7(2-11)17-20(16,18-8(3-12)4-13)19-9(5-14)6-15/h7-9H,1-6H2

> <InChI Key_QSARr>
ASLWPAWFJZFCKF-UHFFFAOYSA-N

> <Salt_Solvent>


> <Salt_Solvent_ID>
0

> <MPID>
101127

> <Tr_1_Tst_0>
1

> <Ready_Biodeg>
0.0

$$$$
Row1095
  Mrv171c012251911052D          

 18 19  0  0  0  0            999 V2000
    0.9242   -2.2082    0.0000 C   0  0  0  0  0  0  0  0  0  0  0  0
    1.6387   -2.6207    0.0000 C   0  0  0  0  0  0  0  0  0  0  0  0
    2.3531   -2.2082    0.0000 C   0  0  0  0  0  0  0  0  0  0  0  0
    2.3531   -1.3832    0.0000 N   0  0  0  0  0  0  0  0  0  0  0  0
    3.0676   -0.9707    0.0000 C   0  0  0  0  0  0  0  0  0  0  0  0
    3.7821   -1.3832    0.0000 C   0  0  0  0  0  0  0  0  0  0  0  0
    4.4965   -0.9707    0.0000 C   0  0  0  0  0  0  0  0  0  0  0  0
    4.4965   -0.1457    0.0000 C   0  0  0  0  0  0  0  0  0  0  0  0
    3.7821    0.2668    0.0000 C   0  0  0  0  0  0  0  0  0  0  0  0
    3.0676   -0.1457    0.0000 C   0  0  0  0  0  0  0  0  0  0  0  0
    2.3531    0.2668    0.0000 C   0  0  0  0  0  0  0  0  0  0  0  0
    1.6387   -0.1457    0.0000 O   0  0  0  0  0  0  0  0  0  0  0  0
    2.3531    1.0918    0.0000 O   0  0  0  0  0  0  0  0  0  0  0  0
    3.0676   -2.6207    0.0000 C   0  0  0  0  0  0  0  0  0  0  0  0
    3.0676   -3.4457    0.0000 C   0  0  0  0  0  0  0  0  0  0  0  0
    2.3531   -3.8582    0.0000 C   0  0  0  0  0  0  0  0  0  0  0  0
    1.6387   -3.4457    0.0000 C   0  0  0  0  0  0  0  0  0  0  0  0
    0.9242   -3.8582    0.0000 Cl  0  0  0  0  0  0  0  0  0  0  0  0
  1  2  1  0  0  0  0
  3  2  1  0  0  0  0
  3  4  1  0  0  0  0
  4  5  1  0  0  0  0
  6  5  1  0  0  0  0
  7  6  2  0  0  0  0
  8  7  1  0  0  0  0
  9  8  2  0  0  0  0
 10  9  1  0  0  0  0
  5 10  2  0  0  0  0
 10 11  1  0  0  0  0
 11 12  2  0  0  0  0
 11 13  1  0  0  0  0
 14  3  2  0  0  0  0
 15 14  1  0  0  0  0
 16 15  2  0  0  0  0
 17 16  1  0  0  0  0
  2 17  2  0  0  0  0
 17 18  1  0  0  0  0
M  END
> <ChemID>
101147

> <CAS>
13710-19-5

> <Original_SMILES>
Cc1c(Cl)cccc1Nc1ccccc1C(O)=O

> <preferred_name>
Tolfenamic acid

> <dsstox_substance_id>
DTXSID1045409

> <dsstox_compound_id>
DTXCID9025409

> <qc_level>
DSSTox_Low

> <Canonical_QSARr>
CC1=C(Cl)C=CC=C1NC1C=CC=CC=1C(O)=O

> <InChI_Code_QSARr>
InChI=1S/C14H12ClNO2/c1-9-11(15)6-4-8-12(9)16-13-7-3-2-5-10(13)14(17)18/h2-8,16H,1H3,(H,17,18)

> <InChI Key_QSARr>
YEZNLOUZAIOMLT-UHFFFAOYSA-N

> <Salt_Solvent>


> <Salt_Solvent_ID>
0

> <MPID>
101128

> <Tr_1_Tst_0>
1

> <Ready_Biodeg>
0.0

$$$$
Row1096
  Mrv171c012251911052D          

 21 23  0  0  0  0            999 V2000
    0.7145   -4.2232    0.0000 C   0  0  0  0  0  0  0  0  0  0  0  0
    1.4289   -4.6357    0.0000 C   0  0  0  0  0  0  0  0  0  0  0  0
    2.1434   -4.2232    0.0000 C   0  0  0  0  0  0  0  0  0  0  0  0
    2.8579   -4.6357    0.0000 C   0  0  0  0  0  0  0  0  0  0  0  0
    3.5723   -4.2232    0.0000 C   0  0  0  0  0  0  0  0  0  0  0  0
    4.2868   -4.6357    0.0000 C   0  0  0  0  0  0  0  0  0  0  0  0
    5.0013   -4.2232    0.0000 C   0  0  0  0  0  0  0  0  0  0  0  0
    5.7158   -4.6357    0.0000 C   0  0  0  0  0  0  0  0  0  0  0  0
    2.1434   -3.3982    0.0000 C   0  0  0  0  0  0  0  0  0  0  0  0
    1.4289   -2.9857    0.0000 C   0  0  0  0  0  0  0  0  0  0  0  0
    0.7145   -3.3982    0.0000 C   0  0  0  0  0  0  0  0  0  0  0  0
   -0.0000   -2.9857    0.0000 C   0  0  0  0  0  0  0  0  0  0  0  0
   -0.0000   -2.1607    0.0000 O   0  0  0  0  0  0  0  0  0  0  0  0
   -0.7145   -3.3982    0.0000 C   0  0  0  0  0  0  0  0  0  0  0  0
   -0.7145   -4.2232    0.0000 C   0  0  0  0  0  0  0  0  0  0  0  0
   -1.4289   -4.6357    0.0000 C   0  0  0  0  0  0  0  0  0  0  0  0
   -2.1434   -4.2232    0.0000 C   0  0  0  0  0  0  0  0  0  0  0  0
   -2.1434   -3.3982    0.0000 C   0  0  0  0  0  0  0  0  0  0  0  0
   -1.4289   -2.9857    0.0000 C   0  0  0  0  0  0  0  0  0  0  0  0
   -0.0000   -4.6357    0.0000 C   0  0  0  0  0  0  0  0  0  0  0  0
   -0.0000   -5.4607    0.0000 O   0  0  0  0  0  0  0  0  0  0  0  0
  2  1  1  0  0  0  0
  3  2  2  0  0  0  0
  3  4  1  0  0  0  0
  4  5  1  0  0  0  0
  5  6  1  0  0  0  0
  6  7  1  0  0  0  0
  7  8  1  0  0  0  0
  9  3  1  0  0  0  0
 10  9  2  0  0  0  0
 11 10  1  0  0  0  0
 11  1  2  0  0  0  0
 12 11  1  0  0  0  0
 12 13  2  0  0  0  0
 14 12  1  0  0  0  0
 14 15  1  0  0  0  0
 15 16  2  0  0  0  0
 16 17  1  0  0  0  0
 17 18  2  0  0  0  0
 18 19  1  0  0  0  0
 19 14  2  0  0  0  0
 20 15  1  0  0  0  0
  1 20  1  0  0  0  0
 20 21  2  0  0  0  0
M  END
> <ChemID>
101148

> <CAS>
13936-21-5

> <Original_SMILES>
CCCCCc1cc2c(cc1)C(=O)c1ccccc1C2=O

> <preferred_name>
9,10-Anthracenedione, 2-pentyl-

> <dsstox_substance_id>
DTXSID1065681

> <dsstox_compound_id>
DTXCID0034518

> <qc_level>
Public_High

> <Canonical_QSARr>
CCCCCC1=CC2=C(C=C1)C(=O)C1=CC=CC=C1C2=O

> <InChI_Code_QSARr>
InChI=1S/C19H18O2/c1-2-3-4-7-13-10-11-16-17(12-13)19(21)15-9-6-5-8-14(15)18(16)20/h5-6,8-12H,2-4,7H2,1H3

> <InChI Key_QSARr>
UMWZLYTVXQBTTE-UHFFFAOYSA-N

> <Salt_Solvent>


> <Salt_Solvent_ID>
0

> <MPID>
101129

> <Tr_1_Tst_0>
1

> <Ready_Biodeg>
0.0

$$$$
Row1097
  Mrv171c012251911052D          

  5  4  0  0  0  0            999 V2000
    1.8000   -0.0607    0.0000 C   0  0  0  0  0  0  0  0  0  0  0  0
    2.2125   -0.7752    0.0000 C   0  0  0  0  0  0  0  0  0  0  0  0
    1.8000   -1.4897    0.0000 C   0  0  0  0  0  0  0  0  0  0  0  0
    2.2125   -2.2041    0.0000 C   0  0  0  0  0  0  0  0  0  0  0  0
    0.9750   -1.4897    0.0000 N   0  0  0  0  0  0  0  0  0  0  0  0
  1  2  1  0  0  0  0
  2  3  1  0  0  0  0
  3  4  1  0  0  0  0
  3  5  1  0  0  0  0
M  END
> <ChemID>
101149

> <CAS>
13952-84-6

> <Original_SMILES>
CCC(C)N

> <preferred_name>
2-Butanamine

> <dsstox_substance_id>
DTXSID4022284

> <dsstox_compound_id>
DTXCID602284

> <qc_level>
DSSTox_High

> <Canonical_QSARr>
CCC(C)N

> <InChI_Code_QSARr>
InChI=1S/C4H11N/c1-3-4(2)5/h4H,3,5H2,1-2H3

> <InChI Key_QSARr>
BHRZNVHARXXAHW-UHFFFAOYSA-N

> <Salt_Solvent>


> <Salt_Solvent_ID>
0

> <MPID>
101130

> <Tr_1_Tst_0>
0

> <Ready_Biodeg>
1.0

$$$$
Row1098
  Mrv171c012251911052D          

 34 33  0  0  0  0            999 V2000
    9.7076   -6.2564    0.0000 C   0  0  0  0  0  0  0  0  0  0  0  0
    8.9931   -5.8439    0.0000 C   0  0  0  0  0  0  0  0  0  0  0  0
    8.2786   -6.2564    0.0000 C   0  0  0  0  0  0  0  0  0  0  0  0
    7.5642   -5.8439    0.0000 C   0  0  0  0  0  0  0  0  0  0  0  0
    6.8497   -6.2564    0.0000 C   0  0  0  0  0  0  0  0  0  0  0  0
    6.1352   -5.8439    0.0000 C   0  0  0  0  0  0  0  0  0  0  0  0
    5.4208   -6.2564    0.0000 C   0  0  0  0  0  0  0  0  0  0  0  0
    4.7063   -5.8439    0.0000 C   0  0  0  0  0  0  0  0  0  0  0  0
    3.9918   -6.2564    0.0000 C   0  0  0  0  0  0  0  0  0  0  0  0
    3.2774   -5.8439    0.0000 C   0  0  0  0  0  0  0  0  0  0  0  0
    2.5629   -6.2564    0.0000 C   0  0  0  0  0  0  0  0  0  0  0  0
    1.8484   -5.8439    0.0000 C   0  0  0  0  0  0  0  0  0  0  0  0
    1.1339   -6.2564    0.0000 C   0  0  0  0  0  0  0  0  0  0  0  0
    0.4195   -5.8439    0.0000 C   0  0  0  0  0  0  0  0  0  0  0  0
   -0.2950   -6.2564    0.0000 C   0  0  0  0  0  0  0  0  0  0  0  0
   -1.0095   -5.8439    0.0000 C   0  0  0  0  0  0  0  0  0  0  0  0
   -1.7239   -6.2564    0.0000 C   0  0  0  0  0  0  0  0  0  0  0  0
   10.4221   -5.8439    0.0000 C   0  0  0  0  0  0  0  0  0  0  0  0
   11.1365   -6.2564    0.0000 C   0  0  0  0  0  0  0  0  0  0  0  0
   11.8510   -5.8439    0.0000 C   0  0  0  0  0  0  0  0  0  0  0  0
   12.5655   -6.2564    0.0000 C   0  0  0  0  0  0  0  0  0  0  0  0
   13.2799   -5.8439    0.0000 C   0  0  0  0  0  0  0  0  0  0  0  0
   13.9944   -6.2564    0.0000 C   0  0  0  0  0  0  0  0  0  0  0  0
   14.7089   -5.8439    0.0000 C   0  0  0  0  0  0  0  0  0  0  0  0
   15.4234   -6.2564    0.0000 C   0  0  0  0  0  0  0  0  0  0  0  0
   16.1378   -5.8439    0.0000 C   0  0  0  0  0  0  0  0  0  0  0  0
   16.8523   -6.2564    0.0000 C   0  0  0  0  0  0  0  0  0  0  0  0
   17.5668   -5.8439    0.0000 C   0  0  0  0  0  0  0  0  0  0  0  0
   18.2812   -6.2564    0.0000 C   0  0  0  0  0  0  0  0  0  0  0  0
   18.9957   -5.8439    0.0000 C   0  0  0  0  0  0  0  0  0  0  0  0
   19.7102   -6.2564    0.0000 C   0  0  0  0  0  0  0  0  0  0  0  0
   20.4247   -5.8439    0.0000 C   0  0  0  0  0  0  0  0  0  0  0  0
   21.1391   -6.2564    0.0000 C   0  0  0  0  0  0  0  0  0  0  0  0
   21.8536   -5.8439    0.0000 C   0  0  0  0  0  0  0  0  0  0  0  0
  1  2  1  0  0  0  0
  2  3  1  0  0  0  0
  3  4  1  0  0  0  0
  4  5  1  0  0  0  0
  5  6  1  0  0  0  0
  6  7  1  0  0  0  0
  7  8  1  0  0  0  0
  8  9  1  0  0  0  0
  9 10  1  0  0  0  0
 10 11  1  0  0  0  0
 11 12  1  0  0  0  0
 12 13  1  0  0  0  0
 13 14  1  0  0  0  0
 14 15  1  0  0  0  0
 15 16  1  0  0  0  0
 16 17  1  0  0  0  0
  1 18  1  0  0  0  0
 18 19  1  0  0  0  0
 19 20  1  0  0  0  0
 20 21  1  0  0  0  0
 21 22  1  0  0  0  0
 22 23  1  0  0  0  0
 23 24  1  0  0  0  0
 24 25  1  0  0  0  0
 25 26  1  0  0  0  0
 26 27  1  0  0  0  0
 27 28  1  0  0  0  0
 28 29  1  0  0  0  0
 29 30  1  0  0  0  0
 30 31  1  0  0  0  0
 31 32  1  0  0  0  0
 32 33  1  0  0  0  0
 33 34  1  0  0  0  0
M  END
> <ChemID>
101150

> <CAS>
14167-59-0

> <Original_SMILES>
CCCCCCCCCCCCCCCCCCCCCCCCCCCCCCCCCC

> <preferred_name>
Tetratriacontane

> <dsstox_substance_id>
DTXSID7058622

> <dsstox_compound_id>
DTXCID1032309

> <qc_level>
DSSTox_Low

> <Canonical_QSARr>
CCCCCCCCCCCCCCCCCCCCCCCCCCCCCCCCCC

> <InChI_Code_QSARr>
InChI=1S/C34H70/c1-3-5-7-9-11-13-15-17-19-21-23-25-27-29-31-33-34-32-30-28-26-24-22-20-18-16-14-12-10-8-6-4-2/h3-34H2,1-2H3

> <InChI Key_QSARr>
GWVDBZWVFGFBCN-UHFFFAOYSA-N

> <Salt_Solvent>


> <Salt_Solvent_ID>
0

> <MPID>
101131

> <Tr_1_Tst_0>
1

> <Ready_Biodeg>
1.0

$$$$
Row1099
  Mrv171c012251911052D          

 19 19  0  0  0  0            999 V2000
    3.5724    5.3625    0.0000 C   0  0  0  0  0  0  0  0  0  0  0  0
    2.8579    4.9500    0.0000 C   0  0  0  0  0  0  0  0  0  0  0  0
    2.8579    4.1250    0.0000 O   0  0  0  0  0  0  0  0  0  0  0  0
    2.1434    3.7125    0.0000 P   0  0  0  0  0  0  0  0  0  0  0  0
    1.7309    4.4270    0.0000 S   0  0  0  0  0  0  0  0  0  0  0  0
    1.4289    3.3000    0.0000 O   0  0  0  0  0  0  0  0  0  0  0  0
    1.4289    2.4750    0.0000 N   0  0  0  0  0  0  0  0  0  0  0  0
    0.7145    2.0625    0.0000 C   0  0  0  0  0  0  0  0  0  0  0  0
    0.0000    2.4750    0.0000 C   0  0  0  0  0  0  0  0  0  0  0  0
   -0.7145    2.8875    0.0000 N   0  0  0  0  0  0  0  0  0  0  0  0
    0.7145    1.2375    0.0000 C   0  0  0  0  0  0  0  0  0  0  0  0
    1.4289    0.8250    0.0000 C   0  0  0  0  0  0  0  0  0  0  0  0
    1.4289   -0.0000    0.0000 C   0  0  0  0  0  0  0  0  0  0  0  0
    0.7145   -0.4125    0.0000 C   0  0  0  0  0  0  0  0  0  0  0  0
    0.0000    0.0000    0.0000 C   0  0  0  0  0  0  0  0  0  0  0  0
    0.0000    0.8250    0.0000 C   0  0  0  0  0  0  0  0  0  0  0  0
    2.5559    2.9980    0.0000 O   0  0  0  0  0  0  0  0  0  0  0  0
    2.1434    2.2836    0.0000 C   0  0  0  0  0  0  0  0  0  0  0  0
    2.5559    1.5691    0.0000 C   0  0  0  0  0  0  0  0  0  0  0  0
  1  2  1  0  0  0  0
  2  3  1  0  0  0  0
  3  4  1  0  0  0  0
  4  5  2  0  0  0  0
  4  6  1  0  0  0  0
  7  6  1  4  0  0  0
  7  8  2  0  0  0  0
  8  9  1  0  0  0  0
  9 10  3  0  0  0  0
  8 11  1  0  0  0  0
 11 12  1  0  0  0  0
 12 13  2  0  0  0  0
 13 14  1  0  0  0  0
 14 15  2  0  0  0  0
 15 16  1  0  0  0  0
 11 16  2  0  0  0  0
  4 17  1  0  0  0  0
 17 18  1  0  0  0  0
 18 19  1  0  0  0  0
M  END
> <ChemID>
101151

> <CAS>
14816-18-3

> <Original_SMILES>
CCOP(=S)(O/N=C(\C#N)/c1ccccc1)OCC

> <preferred_name>
Phoxim

> <dsstox_substance_id>
DTXSID8034324

> <dsstox_compound_id>
DTXCID6014324

> <qc_level>
DSSTox_Low

> <Canonical_QSARr>
CCOP(=S)(ON=C(C#N)C1C=CC=CC=1)OCC

> <InChI_Code_QSARr>
InChI=1S/C12H15N2O3PS/c1-3-15-18(19,16-4-2)17-14-12(10-13)11-8-6-5-7-9-11/h5-9H,3-4H2,1-2H3

> <InChI Key_QSARr>
ATROHALUCMTWTB-UHFFFAOYSA-N

> <Salt_Solvent>


> <Salt_Solvent_ID>
0

> <MPID>
101132

> <Tr_1_Tst_0>
1

> <Ready_Biodeg>
0.0

$$$$
Row1100
  Mrv171c012251911052D          

  8  7  0  0  0  0            999 V2000
    4.2130    0.1031    0.0000 Cl  0  0  0  0  0  0  0  0  0  0  0  0
    3.3880    0.1031    0.0000 C   0  0  0  0  0  0  0  0  0  0  0  0
    2.9755    0.8176    0.0000 C   0  0  0  0  0  0  0  0  0  0  0  0
    3.3880    1.5321    0.0000 Cl  0  0  0  0  0  0  0  0  0  0  0  0
    2.1505    0.8176    0.0000 Cl  0  0  0  0  0  0  0  0  0  0  0  0
    2.9755   -0.6114    0.0000 C   0  0  0  0  0  0  0  0  0  0  0  0
    3.3880   -1.3258    0.0000 Cl  0  0  0  0  0  0  0  0  0  0  0  0
    2.1505   -0.6114    0.0000 Cl  0  0  0  0  0  0  0  0  0  0  0  0
  1  2  1  0  0  0  0
  2  3  1  0  0  0  0
  3  4  1  0  0  0  0
  3  5  1  0  0  0  0
  2  6  1  0  0  0  0
  6  7  1  0  0  0  0
  6  8  1  0  0  0  0
M  END
> <ChemID>
101152

> <CAS>
15104-61-7

> <Original_SMILES>
ClC(C(Cl)Cl)C(Cl)Cl

> <preferred_name>
Propane, 1,1,2,3,3-pentachloro-

> <dsstox_substance_id>
DTXSID20164698

> <dsstox_compound_id>
DTXCID2087189

> <qc_level>
Public_Medium

> <Canonical_QSARr>
ClC(C(Cl)Cl)C(Cl)Cl

> <InChI_Code_QSARr>
InChI=1S/C3H3Cl5/c4-1(2(5)6)3(7)8/h1-3H

> <InChI Key_QSARr>
PANVCEBTPSTUEL-UHFFFAOYSA-N

> <Salt_Solvent>


> <Salt_Solvent_ID>
0

> <MPID>
101133

> <Tr_1_Tst_0>
1

> <Ready_Biodeg>
0.0

$$$$
Row1101
  Mrv171c012251911052D          

 14 14  0  0  0  0            999 V2000
    2.6027   -3.4403    0.0000 C   0  0  0  0  0  0  0  0  0  0  0  0
    1.8882   -3.0278    0.0000 N   0  0  0  0  0  0  0  0  0  0  0  0
    1.8882   -2.2028    0.0000 C   0  0  0  0  0  0  0  0  0  0  0  0
    2.6027   -1.7903    0.0000 C   0  0  0  0  0  0  0  0  0  0  0  0
    2.6027   -0.9653    0.0000 C   0  0  0  0  0  0  0  0  0  0  0  0
    1.8882   -0.5528    0.0000 C   0  0  0  0  0  0  0  0  0  0  0  0
    1.8882    0.2722    0.0000 C   0  0  0  0  0  0  0  0  0  0  0  0
    1.1738   -0.9653    0.0000 C   0  0  0  0  0  0  0  0  0  0  0  0
    0.4593   -0.5528    0.0000 Cl  0  0  0  0  0  0  0  0  0  0  0  0
    1.1738   -1.7903    0.0000 C   0  0  0  0  0  0  0  0  0  0  0  0
    2.6027   -4.2653    0.0000 N   0  0  0  0  0  0  0  0  0  0  0  0
    3.3172   -4.6778    0.0000 C   0  0  0  0  0  0  0  0  0  0  0  0
    1.8882   -4.6778    0.0000 C   0  0  0  0  0  0  0  0  0  0  0  0
    3.3172   -3.0278    0.0000 O   0  0  0  0  0  0  0  0  0  0  0  0
  1  2  1  0  0  0  0
  2  3  1  0  0  0  0
  4  3  1  0  0  0  0
  5  4  2  0  0  0  0
  6  5  1  0  0  0  0
  6  7  1  0  0  0  0
  8  6  2  0  0  0  0
  8  9  1  0  0  0  0
 10  8  1  0  0  0  0
  3 10  2  0  0  0  0
  1 11  1  0  0  0  0
 11 12  1  0  0  0  0
 11 13  1  0  0  0  0
  1 14  2  0  0  0  0
M  END
> <ChemID>
101155

> <CAS>
15545-48-9

> <Original_SMILES>
Cc1ccc(cc1Cl)NC(=O)N(C)C

> <preferred_name>
Chlorotoluron

> <dsstox_substance_id>
DTXSID8052853

> <dsstox_compound_id>
DTXCID5031264

> <qc_level>
DSSTox_Low

> <Canonical_QSARr>
CC1C=CC(=CC=1Cl)NC(=O)N(C)C

> <InChI_Code_QSARr>
InChI=1S/C10H13ClN2O/c1-7-4-5-8(6-9(7)11)12-10(14)13(2)3/h4-6H,1-3H3,(H,12,14)

> <InChI Key_QSARr>
JXCGFZXSOMJFOA-UHFFFAOYSA-N

> <Salt_Solvent>


> <Salt_Solvent_ID>
0

> <MPID>
101134

> <Tr_1_Tst_0>
0

> <Ready_Biodeg>
0.0

$$$$
Row1102
  Mrv171c012251911052D          

 18 18  0  0  0  0            999 V2000
    1.7856   -1.1886    0.0000 C   0  0  0  0  0  0  0  0  0  0  0  0
    2.1981   -1.9031    0.0000 C   0  0  0  0  0  0  0  0  0  0  0  0
    1.7856   -2.6176    0.0000 N   0  0  0  0  0  0  0  0  0  0  0  0
    0.9606   -2.6176    0.0000 C   0  0  0  0  0  0  0  0  0  0  0  0
    0.5481   -3.3320    0.0000 C   0  0  0  0  0  0  0  0  0  0  0  0
   -0.2769   -3.3320    0.0000 Cl  0  0  0  0  0  0  0  0  0  0  0  0
    0.5481   -1.9031    0.0000 O   0  0  0  0  0  0  0  0  0  0  0  0
    2.1981   -3.3320    0.0000 C   0  0  0  0  0  0  0  0  0  0  0  0
    3.0231   -3.3320    0.0000 O   0  0  0  0  0  0  0  0  0  0  0  0
    3.4356   -4.0465    0.0000 C   0  0  0  0  0  0  0  0  0  0  0  0
    3.0231   -1.9031    0.0000 C   0  0  0  0  0  0  0  0  0  0  0  0
    3.4356   -2.6176    0.0000 C   0  0  0  0  0  0  0  0  0  0  0  0
    4.2606   -2.6176    0.0000 C   0  0  0  0  0  0  0  0  0  0  0  0
    3.4356   -1.1886    0.0000 C   0  0  0  0  0  0  0  0  0  0  0  0
    3.0231   -0.4742    0.0000 C   0  0  0  0  0  0  0  0  0  0  0  0
    2.1981   -0.4742    0.0000 C   0  0  0  0  0  0  0  0  0  0  0  0
    0.9606   -1.1886    0.0000 C   0  0  0  0  0  0  0  0  0  0  0  0
    0.5481   -0.4742    0.0000 C   0  0  0  0  0  0  0  0  0  0  0  0
  2  1  1  0  0  0  0
  2  3  1  0  0  0  0
  3  4  1  0  0  0  0
  4  5  1  0  0  0  0
  5  6  1  0  0  0  0
  4  7  2  0  0  0  0
  3  8  1  0  0  0  0
  8  9  1  0  0  0  0
  9 10  1  0  0  0  0
 11  2  2  0  0  0  0
 11 12  1  0  0  0  0
 12 13  1  0  0  0  0
 14 11  1  0  0  0  0
 15 14  2  0  0  0  0
 16 15  1  0  0  0  0
  1 16  2  0  0  0  0
  1 17  1  0  0  0  0
 17 18  1  0  0  0  0
M  END
> <ChemID>
101156

> <CAS>
15972-60-8

> <Original_SMILES>
COCN(C(=O)CCl)c1c(CC)cccc1CC

> <preferred_name>
Alachlor

> <dsstox_substance_id>
DTXSID1022265

> <dsstox_compound_id>
DTXCID402265

> <qc_level>
DSSTox_Low

> <Canonical_QSARr>
COCN(C(=O)CCl)C1C(CC)=CC=CC=1CC

> <InChI_Code_QSARr>
InChI=1S/C14H20ClNO2/c1-4-11-7-6-8-12(5-2)14(11)16(10-18-3)13(17)9-15/h6-8H,4-5,9-10H2,1-3H3

> <InChI Key_QSARr>
XCSGPAVHZFQHGE-UHFFFAOYSA-N

> <Salt_Solvent>


> <Salt_Solvent_ID>
0

> <MPID>
101135

> <Tr_1_Tst_0>
1

> <Ready_Biodeg>
0.0

$$$$
Row1103
  Mrv171c012251911052D          

  9  9  0  0  0  0            999 V2000
    4.5078    0.6417    0.0000 Cl  0  0  0  0  0  0  0  0  0  0  0  0
    3.7933    0.2292    0.0000 C   0  0  0  0  0  0  0  0  0  0  0  0
    3.0789    0.6417    0.0000 C   0  0  0  0  0  0  0  0  0  0  0  0
    3.0789    1.4667    0.0000 Cl  0  0  0  0  0  0  0  0  0  0  0  0
    2.3644    0.2292    0.0000 N   0  0  0  0  0  0  0  0  0  0  0  0
    2.3644   -0.5958    0.0000 C   0  0  0  0  0  0  0  0  0  0  0  0
    3.0789   -1.0083    0.0000 C   0  0  0  0  0  0  0  0  0  0  0  0
    3.0789   -1.8333    0.0000 Cl  0  0  0  0  0  0  0  0  0  0  0  0
    3.7933   -0.5958    0.0000 C   0  0  0  0  0  0  0  0  0  0  0  0
  1  2  1  0  0  0  0
  3  2  2  0  0  0  0
  3  4  1  0  0  0  0
  5  3  1  0  0  0  0
  6  5  2  0  0  0  0
  7  6  1  0  0  0  0
  7  8  1  0  0  0  0
  9  7  2  0  0  0  0
  2  9  1  0  0  0  0
M  END
> <ChemID>
101157

> <CAS>
16063-70-0

> <Original_SMILES>
Clc1c[n]c(Cl)c(Cl)c1

> <preferred_name>
Pyridine, 2,3,5-trichloro-

> <dsstox_substance_id>
DTXSID40166952

> <dsstox_compound_id>
DTXCID9089443

> <qc_level>
Public_Medium

> <Canonical_QSARr>
ClC1C=NC(Cl)=C(Cl)C=1

> <InChI_Code_QSARr>
InChI=1S/C5H2Cl3N/c6-3-1-4(7)5(8)9-2-3/h1-2H

> <InChI Key_QSARr>
CNLIIAKAAMFCJG-UHFFFAOYSA-N

> <Salt_Solvent>


> <Salt_Solvent_ID>
0

> <MPID>
101136

> <Tr_1_Tst_0>
1

> <Ready_Biodeg>
0.0

$$$$
Row1104
  Mrv171c012251911052D          

 26 28  0  0  0  0            999 V2000
    4.7763    0.4821    0.0000 O   0  0  0  0  0  0  0  0  0  0  0  0
    4.0619    0.8946    0.0000 C   0  0  0  0  0  0  0  0  0  0  0  0
    3.2414    0.9808    0.0000 C   0  0  0  0  0  0  0  0  0  0  0  0
    4.0619    1.7196    0.0000 O   0  0  0  0  0  0  0  0  0  0  0  0
    4.7763   -0.3429    0.0000 C   0  0  0  0  0  0  0  0  0  0  0  0
    5.4908   -0.7554    0.0000 C   0  0  0  0  0  0  0  0  0  0  0  0
    6.2053   -0.3429    0.0000 C   0  0  0  0  0  0  0  0  0  0  0  0
    6.9197   -0.7554    0.0000 C   0  0  0  0  0  0  0  0  0  0  0  0
    6.9197   -1.5804    0.0000 C   0  0  0  0  0  0  0  0  0  0  0  0
    6.2053   -1.9929    0.0000 C   0  0  0  0  0  0  0  0  0  0  0  0
    5.4908   -1.5804    0.0000 C   0  0  0  0  0  0  0  0  0  0  0  0
    4.7763   -1.9929    0.0000 C   0  0  0  0  0  0  0  0  0  0  0  0
    4.0619   -1.5804    0.0000 C   0  0  0  0  0  0  0  0  0  0  0  0
    3.3474   -1.9929    0.0000 C   0  0  0  0  0  0  0  0  0  0  0  0
    2.6329   -1.5804    0.0000 C   0  0  0  0  0  0  0  0  0  0  0  0
    2.6329   -0.7554    0.0000 C   0  0  0  0  0  0  0  0  0  0  0  0
    3.3474   -0.3429    0.0000 C   0  0  0  0  0  0  0  0  0  0  0  0
    3.3474    0.4821    0.0000 O   0  0  0  0  0  0  0  0  0  0  0  0
    2.6329    0.8946    0.0000 C   0  0  0  0  0  0  0  0  0  0  0  0
    2.6329    1.7196    0.0000 C   0  0  0  0  0  0  0  0  0  0  0  0
    1.9184    0.4821    0.0000 O   0  0  0  0  0  0  0  0  0  0  0  0
    4.0619   -0.7554    0.0000 C   0  0  0  0  0  0  0  0  0  0  0  0
    6.2053    0.4821    0.0000 O   0  0  0  0  0  0  0  0  0  0  0  0
    6.9197    0.8946    0.0000 C   0  0  0  0  0  0  0  0  0  0  0  0
    6.9197    1.7196    0.0000 C   0  0  0  0  0  0  0  0  0  0  0  0
    7.6342    0.4821    0.0000 O   0  0  0  0  0  0  0  0  0  0  0  0
  1  2  1  0  0  0  0
  2  3  1  0  0  0  0
  2  4  2  0  0  0  0
  1  5  1  0  0  0  0
  6  5  2  0  0  0  0
  6  7  1  0  0  0  0
  7  8  2  0  0  0  0
  8  9  1  0  0  0  0
  9 10  2  0  0  0  0
 10 11  1  0  0  0  0
 11  6  1  0  0  0  0
 12 11  2  0  0  0  0
 13 12  1  0  0  0  0
 13 14  1  0  0  0  0
 14 15  2  0  0  0  0
 15 16  1  0  0  0  0
 16 17  2  0  0  0  0
 17 18  1  0  0  0  0
 18 19  1  0  0  0  0
 19 20  1  0  0  0  0
 19 21  2  0  0  0  0
 17 22  1  0  0  0  0
  5 22  1  0  0  0  0
 22 13  2  0  0  0  0
  7 23  1  0  0  0  0
 23 24  1  0  0  0  0
 24 25  1  0  0  0  0
 24 26  2  0  0  0  0
M  END
> <ChemID>
101159

> <CAS>
16203-97-7

> <Original_SMILES>
CC(=O)Oc1c2c(cccc2cc2cccc(OC(C)=O)c21)OC(C)=O

> <preferred_name>
Anthralin triacetate

> <dsstox_substance_id>
DTXSID20167301

> <dsstox_compound_id>
DTXCID3089792

> <qc_level>
Public_Medium

> <Canonical_QSARr>
CC(=O)OC1=CC=CC2=CC3C=CC=C(OC(C)=O)C=3C(OC(C)=O)=C21

> <InChI_Code_QSARr>
InChI=1S/C20H16O6/c1-11(21)24-16-8-4-6-14-10-15-7-5-9-17(25-12(2)22)19(15)20(18(14)16)26-13(3)23/h4-10H,1-3H3

> <InChI Key_QSARr>
IPWOSICBVUXMML-UHFFFAOYSA-N

> <Salt_Solvent>


> <Salt_Solvent_ID>
0

> <MPID>
101137

> <Tr_1_Tst_0>
1

> <Ready_Biodeg>
0.0

$$$$
Row1105
  Mrv171c012251911052D          

  9 10  0  0  0  0            999 V2000
   -1.2654    0.5418    0.0000 C   0  0  0  0  0  0  0  0  0  0  0  0
   -0.5510    0.9543    0.0000 C   0  0  0  0  0  0  0  0  0  0  0  0
    0.1635    0.5418    0.0000 C   0  0  0  0  0  0  0  0  0  0  0  0
    0.1635   -0.2832    0.0000 C   0  0  0  0  0  0  0  0  0  0  0  0
    0.8780   -0.6957    0.0000 C   0  0  0  0  0  0  0  0  0  0  0  0
    0.6717    0.1293    0.0000 C   0  0  0  0  0  0  0  0  0  0  0  0
    0.8780    0.9543    0.0000 C   0  0  0  0  0  0  0  0  0  0  0  0
    1.5925    0.5418    0.0000 C   0  0  0  0  0  0  0  0  0  0  0  0
    1.5925   -0.2832    0.0000 C   0  0  0  0  0  0  0  0  0  0  0  0
  2  1  1  4  0  0  0
  2  3  2  0  0  0  0
  3  4  1  0  0  0  0
  4  5  1  0  0  0  0
  5  6  1  0  0  0  0
  6  7  1  0  0  0  0
  3  7  1  0  0  0  0
  7  8  1  0  0  0  0
  8  9  2  0  0  0  0
  5  9  1  0  0  0  0
M  END
> <ChemID>
101160

> <CAS>
16219-75-3

> <Original_SMILES>
CC=C1CC2CC1C=C2

> <preferred_name>
5-Ethylidene-2-norbornene

> <dsstox_substance_id>
DTXSID1025306

> <dsstox_compound_id>
DTXCID505306

> <qc_level>
DSSTox_Low

> <Canonical_QSARr>
CC=C1CC2CC1C=C2

> <InChI_Code_QSARr>
InChI=1S/C9H12/c1-2-8-5-7-3-4-9(8)6-7/h2-4,7,9H,5-6H2,1H3

> <InChI Key_QSARr>
OJOWICOBYCXEKR-UHFFFAOYSA-N

> <Salt_Solvent>


> <Salt_Solvent_ID>
0

> <MPID>
101138

> <Tr_1_Tst_0>
0

> <Ready_Biodeg>
0.0

$$$$
Row1106
  Mrv171c012251911052D          

 15 15  0  0  0  0            999 V2000
    0.3439   -0.4290    0.0000 N   0  0  0  0  0  0  0  0  0  0  0  0
    1.0583   -0.8415    0.0000 C   0  0  0  0  0  0  0  0  0  0  0  0
    1.0583   -1.6665    0.0000 C   0  0  0  0  0  0  0  0  0  0  0  0
    1.7728   -2.0790    0.0000 C   0  0  0  0  0  0  0  0  0  0  0  0
    2.4873   -1.6665    0.0000 C   0  0  0  0  0  0  0  0  0  0  0  0
    3.2017   -2.0790    0.0000 C   0  0  0  0  0  0  0  0  0  0  0  0
    3.9162   -1.6665    0.0000 C   0  0  0  0  0  0  0  0  0  0  0  0
    4.6307   -2.0790    0.0000 C   0  0  0  0  0  0  0  0  0  0  0  0
    5.3452   -1.6665    0.0000 C   0  0  0  0  0  0  0  0  0  0  0  0
    6.0596   -2.0790    0.0000 C   0  0  0  0  0  0  0  0  0  0  0  0
    6.7741   -1.6665    0.0000 C   0  0  0  0  0  0  0  0  0  0  0  0
    7.4886   -2.0790    0.0000 C   0  0  0  0  0  0  0  0  0  0  0  0
    8.2030   -1.6665    0.0000 C   0  0  0  0  0  0  0  0  0  0  0  0
    2.4873   -0.8415    0.0000 C   0  0  0  0  0  0  0  0  0  0  0  0
    1.7728   -0.4290    0.0000 C   0  0  0  0  0  0  0  0  0  0  0  0
  1  2  1  0  0  0  0
  3  2  1  0  0  0  0
  4  3  2  0  0  0  0
  5  4  1  0  0  0  0
  5  6  1  0  0  0  0
  6  7  1  0  0  0  0
  7  8  1  0  0  0  0
  8  9  1  0  0  0  0
  9 10  1  0  0  0  0
 10 11  1  0  0  0  0
 11 12  1  0  0  0  0
 12 13  1  0  0  0  0
 14  5  2  0  0  0  0
 15 14  1  0  0  0  0
  2 15  2  0  0  0  0
M  END
> <ChemID>
101161

> <CAS>
16245-79-7

> <Original_SMILES>
CCCCCCCCc1ccc(N)cc1

> <preferred_name>
4-Octylaniline

> <dsstox_substance_id>
DTXSID6022266

> <dsstox_compound_id>
DTXCID802266

> <qc_level>
DSSTox_Low

> <Canonical_QSARr>
CCCCCCCCC1C=CC(N)=CC=1

> <InChI_Code_QSARr>
InChI=1S/C14H23N/c1-2-3-4-5-6-7-8-13-9-11-14(15)12-10-13/h9-12H,2-8,15H2,1H3

> <InChI Key_QSARr>
ORKQJTBYQZITLA-UHFFFAOYSA-N

> <Salt_Solvent>


> <Salt_Solvent_ID>
0

> <MPID>
101139

> <Tr_1_Tst_0>
1

> <Ready_Biodeg>
1.0

$$$$
Row1107
  Mrv171c012251911052D          

  8  8  0  0  0  0            999 V2000
   -0.8931    0.1031    0.0000 O   0  0  0  0  0  0  0  0  0  0  0  0
   -0.1786   -0.3094    0.0000 C   0  0  0  0  0  0  0  0  0  0  0  0
   -0.1786   -1.1344    0.0000 C   0  0  0  0  0  0  0  0  0  0  0  0
    0.5359   -1.5469    0.0000 C   0  0  0  0  0  0  0  0  0  0  0  0
    1.2503   -1.1344    0.0000 C   0  0  0  0  0  0  0  0  0  0  0  0
    1.2503   -0.3094    0.0000 N   0  0  0  0  0  0  0  0  0  0  0  0
    0.5359    0.1031    0.0000 C   0  0  0  0  0  0  0  0  0  0  0  0
    0.5359    0.9281    0.0000 O   0  0  0  0  0  0  0  0  0  0  0  0
  1  2  2  0  0  0  0
  3  2  1  0  0  0  0
  4  3  1  0  0  0  0
  5  4  1  0  0  0  0
  6  5  2  0  0  0  0
  7  6  1  0  0  0  0
  2  7  1  0  0  0  0
  7  8  2  0  0  0  0
M  END
> <ChemID>
101162

> <CAS>
16867-04-2

> <Original_SMILES>
OC1=CC=CNC1=O

> <preferred_name>
3-Hydroxy-2-pyridone

> <dsstox_substance_id>
DTXSID0051782

> <dsstox_compound_id>
DTXCID9030337

> <qc_level>
DSSTox_High

> <Canonical_QSARr>
O=C1CCC=NC1=O

> <InChI_Code_QSARr>
InChI=1S/C5H5NO2/c7-4-2-1-3-6-5(4)8/h3H,1-2H2

> <InChI Key_QSARr>
UVHNFZKPTQUPLV-UHFFFAOYSA-N

> <Salt_Solvent>


> <Salt_Solvent_ID>
0

> <MPID>
101140

> <Tr_1_Tst_0>
1

> <Ready_Biodeg>
0.0

$$$$
Row1108
  Mrv171c012251911052D          

  7  6  0  0  0  0            999 V2000
    1.1502   -0.9028    0.0000 C   0  0  0  0  0  0  0  0  0  0  0  0
    1.5627   -1.6172    0.0000 C   0  0  0  0  0  0  0  0  0  0  0  0
    1.1502   -2.3317    0.0000 Cl  0  0  0  0  0  0  0  0  0  0  0  0
    2.3877   -1.6172    0.0000 C   0  0  0  0  0  0  0  0  0  0  0  0
    1.5627   -0.1883    0.0000 O   0  0  0  0  0  0  0  0  0  0  0  0
    1.1502    0.5262    0.0000 C   0  0  0  0  0  0  0  0  0  0  0  0
    0.3252   -0.9028    0.0000 O   0  0  0  0  0  0  0  0  0  0  0  0
  1  2  1  0  0  0  0
  2  3  1  0  0  0  0
  2  4  1  0  0  0  0
  1  5  1  0  0  0  0
  5  6  1  0  0  0  0
  1  7  2  0  0  0  0
M  END
> <ChemID>
101163

> <CAS>
17639-93-9

> <Original_SMILES>
COC(=O)C(C)Cl

> <preferred_name>


> <dsstox_substance_id>
DTXSID60864786

> <dsstox_compound_id>
DTXCID10813264

> <qc_level>


> <Canonical_QSARr>
COC(=O)C(C)Cl

> <InChI_Code_QSARr>
InChI=1S/C4H7ClO2/c1-3(5)4(6)7-2/h3H,1-2H3

> <InChI Key_QSARr>
JLEJCNOTNLZCHQ-UHFFFAOYSA-N

> <Salt_Solvent>


> <Salt_Solvent_ID>
0

> <MPID>
101141

> <Tr_1_Tst_0>
1

> <Ready_Biodeg>
1.0

$$$$
Row1109
  Mrv171c012251911052D          

 12 12  0  0  0  0            999 V2000
    3.8542   -1.2557    0.0000 O   0  5  0  0  0  0  0  0  0  0  0  0
    3.1397   -0.8432    0.0000 N   0  3  0  0  0  0  0  0  0  0  0  0
    2.4253   -1.2557    0.0000 C   0  0  0  0  0  0  0  0  0  0  0  0
    1.7108   -0.8432    0.0000 C   0  0  0  0  0  0  0  0  0  0  0  0
    1.7108   -0.0182    0.0000 Cl  0  0  0  0  0  0  0  0  0  0  0  0
    0.9963   -1.2557    0.0000 C   0  0  0  0  0  0  0  0  0  0  0  0
    0.9963   -2.0807    0.0000 C   0  0  0  0  0  0  0  0  0  0  0  0
    0.2818   -2.4932    0.0000 Cl  0  0  0  0  0  0  0  0  0  0  0  0
    1.7108   -2.4932    0.0000 C   0  0  0  0  0  0  0  0  0  0  0  0
    2.4253   -2.0807    0.0000 C   0  0  0  0  0  0  0  0  0  0  0  0
    3.1397   -2.4932    0.0000 Cl  0  0  0  0  0  0  0  0  0  0  0  0
    3.1397   -0.0182    0.0000 O   0  0  0  0  0  0  0  0  0  0  0  0
  1  2  1  0  0  0  0
  2  3  1  0  0  0  0
  4  3  1  0  0  0  0
  4  5  1  0  0  0  0
  6  4  2  0  0  0  0
  7  6  1  0  0  0  0
  7  8  1  0  0  0  0
  9  7  2  0  0  0  0
 10  9  1  0  0  0  0
  3 10  2  0  0  0  0
 10 11  1  0  0  0  0
  2 12  2  0  0  0  0
M  CHG  2   1  -1   2   1
M  END
> <ChemID>
101164

> <CAS>
18708-70-8

> <Original_SMILES>
[O-][N+](=O)c1c(Cl)cc(Cl)cc1Cl

> <preferred_name>
2,4,6-Trichloronitrobenzene

> <dsstox_substance_id>
DTXSID0026204

> <dsstox_compound_id>
DTXCID606204

> <qc_level>
DSSTox_Low

> <Canonical_QSARr>
[O-][N+](=O)C1C(Cl)=CC(Cl)=CC=1Cl

> <InChI_Code_QSARr>
InChI=1S/C6H2Cl3NO2/c7-3-1-4(8)6(10(11)12)5(9)2-3/h1-2H

> <InChI Key_QSARr>
AEBJDOTVYMITIA-UHFFFAOYSA-N

> <Salt_Solvent>


> <Salt_Solvent_ID>
0

> <MPID>
101142

> <Tr_1_Tst_0>
0

> <Ready_Biodeg>
0.0

$$$$
Row1110
  Mrv171c012251911052D          

 23 23  0  0  0  0            999 V2000
    2.2068   -2.2527    0.0000 C   0  0  0  0  0  0  0  0  0  0  0  0
    2.2068   -3.0777    0.0000 C   0  0  0  0  0  0  0  0  0  0  0  0
    2.9212   -3.4902    0.0000 C   0  0  0  0  0  0  0  0  0  0  0  0
    2.9212   -4.3152    0.0000 S   0  0  0  0  0  0  0  0  0  0  0  0
    2.9212   -5.1402    0.0000 N   0  0  0  0  0  0  0  0  0  0  0  0
    3.7462   -4.3152    0.0000 O   0  0  0  0  0  0  0  0  0  0  0  0
    2.0962   -4.3152    0.0000 O   0  0  0  0  0  0  0  0  0  0  0  0
    3.6357   -3.0777    0.0000 C   0  0  0  0  0  0  0  0  0  0  0  0
    3.6357   -2.2527    0.0000 C   0  0  0  0  0  0  0  0  0  0  0  0
    4.3502   -1.8402    0.0000 N   0  3  0  0  0  0  0  0  0  0  0  0
    4.3502   -1.0152    0.0000 O   0  0  0  0  0  0  0  0  0  0  0  0
    5.0647   -2.2527    0.0000 O   0  5  0  0  0  0  0  0  0  0  0  0
    2.9212   -1.8402    0.0000 C   0  0  0  0  0  0  0  0  0  0  0  0
    2.9212   -1.0152    0.0000 N   0  0  0  0  0  0  0  0  0  0  0  0
    2.2068   -0.6027    0.0000 C   0  0  0  0  0  0  0  0  0  0  0  0
    2.2068    0.2223    0.0000 C   0  0  0  0  0  0  0  0  0  0  0  0
    1.4923    0.6348    0.0000 C   0  0  0  0  0  0  0  0  0  0  0  0
    3.6357   -0.6027    0.0000 C   0  0  0  0  0  0  0  0  0  0  0  0
    3.6357    0.2223    0.0000 C   0  0  0  0  0  0  0  0  0  0  0  0
    4.3502    0.6348    0.0000 C   0  0  0  0  0  0  0  0  0  0  0  0
    1.4923   -1.8402    0.0000 N   0  3  0  0  0  0  0  0  0  0  0  0
    1.4923   -1.0152    0.0000 O   0  0  0  0  0  0  0  0  0  0  0  0
    0.7778   -2.2527    0.0000 O   0  5  0  0  0  0  0  0  0  0  0  0
  2  1  2  0  0  0  0
  3  2  1  0  0  0  0
  3  4  1  0  0  0  0
  4  5  1  0  0  0  0
  4  6  2  0  0  0  0
  4  7  2  0  0  0  0
  8  3  2  0  0  0  0
  9  8  1  0  0  0  0
  9 10  1  0  0  0  0
 10 11  2  0  0  0  0
 10 12  1  0  0  0  0
 13  9  2  0  0  0  0
  1 13  1  0  0  0  0
 13 14  1  0  0  0  0
 14 15  1  0  0  0  0
 15 16  1  0  0  0  0
 16 17  1  0  0  0  0
 14 18  1  0  0  0  0
 18 19  1  0  0  0  0
 19 20  1  0  0  0  0
  1 21  1  0  0  0  0
 21 22  2  0  0  0  0
 21 23  1  0  0  0  0
M  CHG  4  10   1  12  -1  21   1  23  -1
M  END
> <ChemID>
101165

> <CAS>
19044-88-3

> <Original_SMILES>
CCCN(CCC)c1c(cc(cc1[N+]([O-])=O)S(N)(=O)=O)[N+]([O-])=O

> <preferred_name>
Oryzalin

> <dsstox_substance_id>
DTXSID8024238

> <dsstox_compound_id>
DTXCID904238

> <qc_level>
DSSTox_Low

> <Canonical_QSARr>
CCCN(CCC)C1C(=CC(=CC=1[N+]([O-])=O)S(N)(=O)=O)[N+]([O-])=O

> <InChI_Code_QSARr>
InChI=1S/C12H18N4O6S/c1-3-5-14(6-4-2)12-10(15(17)18)7-9(23(13,21)22)8-11(12)16(19)20/h7-8H,3-6H2,1-2H3,(H2,13,21,22)

> <InChI Key_QSARr>
UNAHYJYOSSSJHH-UHFFFAOYSA-N

> <Salt_Solvent>


> <Salt_Solvent_ID>
0

> <MPID>
101143

> <Tr_1_Tst_0>
1

> <Ready_Biodeg>
0.0

$$$$
Row1111
  Mrv171c012251911052D          

 12 13  0  0  0  0            999 V2000
    1.8911   -1.7267    0.0000 C   0  0  0  0  0  0  0  0  0  0  0  0
    2.6055   -2.1392    0.0000 C   0  0  0  0  0  0  0  0  0  0  0  0
    3.3200   -1.7267    0.0000 C   0  0  0  0  0  0  0  0  0  0  0  0
    4.0345   -2.1392    0.0000 C   0  0  0  0  0  0  0  0  0  0  0  0
    3.3200   -0.9017    0.0000 C   0  0  0  0  0  0  0  0  0  0  0  0
    2.6055   -0.4892    0.0000 C   0  0  0  0  0  0  0  0  0  0  0  0
    1.8911   -0.9017    0.0000 C   0  0  0  0  0  0  0  0  0  0  0  0
    1.1064   -0.6468    0.0000 C   0  0  0  0  0  0  0  0  0  0  0  0
    0.8515    0.1378    0.0000 O   0  0  0  0  0  0  0  0  0  0  0  0
    0.6215   -1.3142    0.0000 O   0  0  0  0  0  0  0  0  0  0  0  0
    1.1064   -1.9817    0.0000 C   0  0  0  0  0  0  0  0  0  0  0  0
    0.8515   -2.7663    0.0000 O   0  0  0  0  0  0  0  0  0  0  0  0
  2  1  1  0  0  0  0
  3  2  1  0  0  0  0
  3  4  1  0  0  0  0
  5  3  1  0  0  0  0
  6  5  1  0  0  0  0
  7  6  1  0  0  0  0
  7  1  1  0  0  0  0
  8  7  1  0  0  0  0
  8  9  2  0  0  0  0
 10  8  1  0  0  0  0
 11 10  1  0  0  0  0
  1 11  1  0  0  0  0
 11 12  2  0  0  0  0
M  END
> <ChemID>
101166

> <CAS>
19438-60-9

> <Original_SMILES>
CC1CC2C(CC1)C(=O)OC2=O

> <preferred_name>
4-Methyl-1,2-cyclohexanedicarboxylic anhydride

> <dsstox_substance_id>
DTXSID8044333

> <dsstox_compound_id>
DTXCID501474671

> <qc_level>
DSSTox_High

> <Canonical_QSARr>
CC1CC2C(CC1)C(=O)OC2=O

> <InChI_Code_QSARr>
InChI=1S/C9H12O3/c1-5-2-3-6-7(4-5)9(11)12-8(6)10/h5-7H,2-4H2,1H3

> <InChI Key_QSARr>
FKBMTBAXDISZGN-UHFFFAOYSA-N

> <Salt_Solvent>


> <Salt_Solvent_ID>
0

> <MPID>
101144

> <Tr_1_Tst_0>
1

> <Ready_Biodeg>
0.0

$$$$
Row1112
  Mrv171c012251911052D          

 28 31  0  0  0  0            999 V2000
    1.1228   -1.2375    0.0000 O   0  0  0  0  0  0  0  0  0  0  0  0
    1.1228   -0.4125    0.0000 C   0  0  0  0  0  0  0  0  0  0  0  0
    1.8372    0.0000    0.0000 C   0  0  0  0  0  0  0  0  0  0  0  0
    2.5517   -0.4125    0.0000 C   0  0  0  0  0  0  0  0  0  0  0  0
    2.5517   -1.2375    0.0000 N   0  0  0  0  0  0  0  0  0  0  0  0
    3.2662   -1.6500    0.0000 C   0  0  0  0  0  0  0  0  0  0  0  0
    3.2662   -2.4750    0.0000 C   0  0  0  0  0  0  0  0  0  0  0  0
    3.9806   -2.8875    0.0000 C   0  0  0  0  0  0  0  0  0  0  0  0
    4.6951   -2.4750    0.0000 C   0  0  0  0  0  0  0  0  0  0  0  0
    4.6951   -1.6500    0.0000 C   0  0  0  0  0  0  0  0  0  0  0  0
    3.9806   -1.2375    0.0000 C   0  0  0  0  0  0  0  0  0  0  0  0
    3.2662    0.0000    0.0000 C   0  0  0  0  0  0  0  0  0  0  0  0
    3.2662    0.8250    0.0000 C   0  0  0  0  0  0  0  0  0  0  0  0
    2.5517    1.2375    0.0000 C   0  0  0  0  0  0  0  0  0  0  0  0
    2.5517    2.0625    0.0000 O   0  0  0  0  0  0  0  0  0  0  0  0
    1.8372    0.8250    0.0000 C   0  0  0  0  0  0  0  0  0  0  0  0
    1.1228    1.2375    0.0000 C   0  0  0  0  0  0  0  0  0  0  0  0
    1.1228    2.0625    0.0000 O   0  0  0  0  0  0  0  0  0  0  0  0
    0.4083    0.8250    0.0000 C   0  0  0  0  0  0  0  0  0  0  0  0
    0.4083    0.0000    0.0000 C   0  0  0  0  0  0  0  0  0  0  0  0
   -0.3062   -0.4125    0.0000 C   0  0  0  0  0  0  0  0  0  0  0  0
   -0.3062   -1.2375    0.0000 N   0  3  0  0  0  0  0  0  0  0  0  0
    0.4083   -1.6500    0.0000 O   0  5  0  0  0  0  0  0  0  0  0  0
   -1.0207   -1.6500    0.0000 O   0  0  0  0  0  0  0  0  0  0  0  0
   -1.0207    0.0000    0.0000 C   0  0  0  0  0  0  0  0  0  0  0  0
   -1.0207    0.8250    0.0000 C   0  0  0  0  0  0  0  0  0  0  0  0
   -0.3062    1.2375    0.0000 C   0  0  0  0  0  0  0  0  0  0  0  0
   -0.3062    2.0625    0.0000 O   0  0  0  0  0  0  0  0  0  0  0  0
  1  2  2  0  0  0  0
  3  2  1  0  0  0  0
  3  4  1  0  0  0  0
  4  5  1  0  0  0  0
  5  6  1  0  0  0  0
  7  6  1  0  0  0  0
  8  7  2  0  0  0  0
  9  8  1  0  0  0  0
 10  9  2  0  0  0  0
 11 10  1  0  0  0  0
  6 11  2  0  0  0  0
  4 12  2  0  0  0  0
 12 13  1  0  0  0  0
 13 14  2  0  0  0  0
 14 15  1  0  0  0  0
 14 16  1  0  0  0  0
 16  3  2  0  0  0  0
 17 16  1  0  0  0  0
 17 18  2  0  0  0  0
 19 17  1  0  0  0  0
 19 20  1  0  0  0  0
  2 20  1  0  0  0  0
 20 21  2  0  0  0  0
 21 22  1  0  0  0  0
 22 23  1  0  0  0  0
 22 24  2  0  0  0  0
 21 25  1  0  0  0  0
 25 26  2  0  0  0  0
 26 27  1  0  0  0  0
 27 19  2  0  0  0  0
 27 28  1  0  0  0  0
M  CHG  2  22   1  23  -1
M  END
> <ChemID>
101167

> <CAS>
20241-76-3

> <Original_SMILES>
[O-][N+](=O)c1ccc(O)c2c1C(=O)c1c(C2=O)c(O)ccc1Nc1ccccc1

> <preferred_name>
1-Anilino-4,5-dihydroxy-8-nitroanthraquinone

> <dsstox_substance_id>
DTXSID1066578

> <dsstox_compound_id>
DTXCID8036233

> <qc_level>
Public_High

> <Canonical_QSARr>
[O-][N+](=O)C1C=CC(O)=C2C=1C(=O)C1=C(C2=O)C(O)=CC=C1NC1C=CC=CC=1

> <InChI_Code_QSARr>
InChI=1S/C20H12N2O6/c23-13-8-6-11(21-10-4-2-1-3-5-10)15-17(13)20(26)18-14(24)9-7-12(22(27)28)16(18)19(15)25/h1-9,21,23-24H

> <InChI Key_QSARr>
DYALWCKAJBVSBZ-UHFFFAOYSA-N

> <Salt_Solvent>


> <Salt_Solvent_ID>
0

> <MPID>
101145

> <Tr_1_Tst_0>
1

> <Ready_Biodeg>
0.0

$$$$
Row1113
  Mrv171c012251911052D          

  8  7  0  0  0  0            999 V2000
    2.1632   -0.8384    0.0000 C   0  0  0  0  0  0  0  0  0  0  0  0
    1.4488   -1.2509    0.0000 C   0  0  0  0  0  0  0  0  0  0  0  0
    0.7343   -0.8384    0.0000 C   0  0  0  0  0  0  0  0  0  0  0  0
    0.0198   -1.2509    0.0000 O   0  0  0  0  0  0  0  0  0  0  0  0
    0.7343   -0.0134    0.0000 C   0  0  0  0  0  0  0  0  0  0  0  0
    2.8777   -1.2509    0.0000 N   0  0  0  0  0  0  0  0  0  0  0  0
    3.5922   -0.8384    0.0000 C   0  0  0  0  0  0  0  0  0  0  0  0
    2.1632   -0.0134    0.0000 O   0  0  0  0  0  0  0  0  0  0  0  0
  1  2  1  0  0  0  0
  2  3  1  0  0  0  0
  3  4  2  0  0  0  0
  3  5  1  0  0  0  0
  1  6  1  0  0  0  0
  6  7  1  0  0  0  0
  1  8  2  0  0  0  0
M  END
> <ChemID>
101168

> <CAS>
20306-75-6

> <Original_SMILES>
CC(=O)CC(=O)NC

> <preferred_name>
N-Methyl-3-oxobutyramide

> <dsstox_substance_id>
DTXSID9040138

> <dsstox_compound_id>
DTXCID7020138

> <qc_level>
DSSTox_Low

> <Canonical_QSARr>
CC(=O)CC(=O)NC

> <InChI_Code_QSARr>
InChI=1S/C5H9NO2/c1-4(7)3-5(8)6-2/h3H2,1-2H3,(H,6,8)

> <InChI Key_QSARr>
ATWLCPHWYPSRBQ-UHFFFAOYSA-N

> <Salt_Solvent>


> <Salt_Solvent_ID>
0

> <MPID>
101146

> <Tr_1_Tst_0>
0

> <Ready_Biodeg>
1.0

$$$$
Row1114
  Mrv171c012251911052D          

 14 13  0  0  0  0            999 V2000
   -3.0493   -0.1105    0.0000 O   0  0  0  0  0  0  0  0  0  0  0  0
   -3.0493    0.7145    0.0000 C   0  0  0  0  0  0  0  0  0  0  0  0
   -3.7638    1.1270    0.0000 C   0  0  0  0  0  0  0  0  0  0  0  0
   -4.4783    0.7145    0.0000 Br  0  0  0  0  0  0  0  0  0  0  0  0
   -2.3349    1.1270    0.0000 O   0  0  0  0  0  0  0  0  0  0  0  0
   -1.6204    0.7145    0.0000 C   0  0  0  0  0  0  0  0  0  0  0  0
   -0.9059    1.1270    0.0000 C   0  0  0  0  0  0  0  0  0  0  0  0
   -0.1914    0.7145    0.0000 C   0  0  0  0  0  0  0  0  0  0  0  0
    0.5230    1.1270    0.0000 C   0  0  0  0  0  0  0  0  0  0  0  0
    1.2375    0.7145    0.0000 O   0  0  0  0  0  0  0  0  0  0  0  0
    1.9520    1.1270    0.0000 C   0  0  0  0  0  0  0  0  0  0  0  0
    1.9520    1.9520    0.0000 O   0  0  0  0  0  0  0  0  0  0  0  0
    2.6664    0.7145    0.0000 C   0  0  0  0  0  0  0  0  0  0  0  0
    3.3809    1.1270    0.0000 Br  0  0  0  0  0  0  0  0  0  0  0  0
  1  2  2  0  0  0  0
  2  3  1  0  0  0  0
  3  4  1  0  0  0  0
  2  5  1  0  0  0  0
  5  6  1  0  0  0  0
  7  6  1  4  0  0  0
  7  8  2  0  0  0  0
  8  9  1  0  0  0  0
  9 10  1  0  0  0  0
 10 11  1  0  0  0  0
 11 12  2  0  0  0  0
 11 13  1  0  0  0  0
 13 14  1  0  0  0  0
M  END
> <ChemID>
101169

> <CAS>
20679-58-7

> <Original_SMILES>
O=C(CBr)OC/C=C/COC(=O)CBr

> <preferred_name>
1,4-Bis(bromoacetoxy)-2-butene

> <dsstox_substance_id>
DTXSID0034308

> <dsstox_compound_id>
DTXCID40810049

> <qc_level>
DSSTox_Low

> <Canonical_QSARr>
O=C(CBr)OCC=CCOC(=O)CBr

> <InChI_Code_QSARr>
InChI=1S/C8H10Br2O4/c9-5-7(11)13-3-1-2-4-14-8(12)6-10/h1-2H,3-6H2

> <InChI Key_QSARr>
SIHKVAXULDBIIY-UHFFFAOYSA-N

> <Salt_Solvent>


> <Salt_Solvent_ID>
0

> <MPID>
101147

> <Tr_1_Tst_0>
1

> <Ready_Biodeg>
1.0

$$$$
Row1115
  Mrv171c012251911052D          

 14 15  0  0  0  0            999 V2000
    4.6266   -2.6270    0.0000 S   0  0  0  0  0  0  0  0  0  0  0  0
    3.9121   -2.2145    0.0000 C   0  0  0  0  0  0  0  0  0  0  0  0
    3.1976   -2.6270    0.0000 S   0  0  0  0  0  0  0  0  0  0  0  0
    2.4831   -2.2145    0.0000 C   0  0  0  0  0  0  0  0  0  0  0  0
    1.7295   -2.5501    0.0000 S   0  0  0  0  0  0  0  0  0  0  0  0
    1.1774   -1.9370    0.0000 C   0  0  0  0  0  0  0  0  0  0  0  0
    0.3524   -1.9370    0.0000 C   0  0  0  0  0  0  0  0  0  0  0  0
   -0.0601   -1.2225    0.0000 C   0  0  0  0  0  0  0  0  0  0  0  0
    0.3524   -0.5080    0.0000 C   0  0  0  0  0  0  0  0  0  0  0  0
    1.1774   -0.5080    0.0000 C   0  0  0  0  0  0  0  0  0  0  0  0
    1.5899   -1.2225    0.0000 C   0  0  0  0  0  0  0  0  0  0  0  0
    2.3969   -1.3940    0.0000 N   0  0  0  0  0  0  0  0  0  0  0  0
    5.3410   -2.2145    0.0000 C   0  0  0  0  0  0  0  0  0  0  0  0
    6.0555   -1.8020    0.0000 N   0  0  0  0  0  0  0  0  0  0  0  0
  1  2  1  0  0  0  0
  2  3  1  0  0  0  0
  3  4  1  0  0  0  0
  5  4  1  0  0  0  0
  6  5  1  0  0  0  0
  6  7  2  0  0  0  0
  7  8  1  0  0  0  0
  8  9  2  0  0  0  0
  9 10  1  0  0  0  0
 10 11  2  0  0  0  0
 11  6  1  0  0  0  0
 12 11  1  0  0  0  0
  4 12  2  0  0  0  0
  1 13  1  0  0  0  0
 13 14  3  0  0  0  0
M  END
> <ChemID>
101170

> <CAS>
21564-17-0

> <Original_SMILES>
N#CSCSc1[n]c2ccccc2[s]1

> <preferred_name>
2-(Thiocyanomethylthio)benzothiazole

> <dsstox_substance_id>
DTXSID6032647

> <dsstox_compound_id>
DTXCID4012647

> <qc_level>
DSSTox_Low

> <Canonical_QSARr>
N#CSCSC1=NC2=CC=CC=C2S1

> <InChI_Code_QSARr>
InChI=1S/C9H6N2S3/c10-5-12-6-13-9-11-7-3-1-2-4-8(7)14-9/h1-4H,6H2

> <InChI Key_QSARr>
TUBQDCKAWGHZPF-UHFFFAOYSA-N

> <Salt_Solvent>


> <Salt_Solvent_ID>
0

> <MPID>
101148

> <Tr_1_Tst_0>
1

> <Ready_Biodeg>
0.0

$$$$
Row1116
  Mrv171c012251911052D          

 15 14  0  0  0  0            999 V2000
    2.5819   -2.3398    0.0000 O   0  0  0  0  0  0  0  0  0  0  0  0
    1.8674   -2.7523    0.0000 C   0  0  0  0  0  0  0  0  0  0  0  0
    1.1530   -3.1648    0.0000 C   0  0  0  0  0  0  0  0  0  0  0  0
    2.2799   -3.4668    0.0000 C   0  0  0  0  0  0  0  0  0  0  0  0
    1.4549   -2.0378    0.0000 C   0  0  0  0  0  0  0  0  0  0  0  0
    2.5819   -1.5148    0.0000 C   0  0  0  0  0  0  0  0  0  0  0  0
    1.8674   -1.1023    0.0000 O   0  0  0  0  0  0  0  0  0  0  0  0
    3.2964   -1.1023    0.0000 O   0  0  0  0  0  0  0  0  0  0  0  0
    3.2964   -0.2773    0.0000 C   0  0  0  0  0  0  0  0  0  0  0  0
    2.5819    0.1352    0.0000 O   0  0  0  0  0  0  0  0  0  0  0  0
    4.0108    0.1352    0.0000 O   0  0  0  0  0  0  0  0  0  0  0  0
    4.0108    0.9602    0.0000 C   0  0  0  0  0  0  0  0  0  0  0  0
    4.0108    1.7852    0.0000 C   0  0  0  0  0  0  0  0  0  0  0  0
    4.8358    0.9602    0.0000 C   0  0  0  0  0  0  0  0  0  0  0  0
    3.1858    0.9602    0.0000 C   0  0  0  0  0  0  0  0  0  0  0  0
  1  2  1  0  0  0  0
  2  3  1  0  0  0  0
  2  4  1  0  0  0  0
  2  5  1  0  0  0  0
  1  6  1  0  0  0  0
  6  7  2  0  0  0  0
  6  8  1  0  0  0  0
  8  9  1  0  0  0  0
  9 10  2  0  0  0  0
  9 11  1  0  0  0  0
 11 12  1  0  0  0  0
 12 13  1  0  0  0  0
 12 14  1  0  0  0  0
 12 15  1  0  0  0  0
M  END
> <ChemID>
101172

> <CAS>
24424-99-5

> <Original_SMILES>
CC(C)(C)OC(=O)OC(=O)OC(C)(C)C

> <preferred_name>
Di-tert-butyl dicarbonate

> <dsstox_substance_id>
DTXSID4051904

> <dsstox_compound_id>
DTXCID9030466

> <qc_level>
DSSTox_High

> <Canonical_QSARr>
CC(C)(C)OC(=O)OC(=O)OC(C)(C)C

> <InChI_Code_QSARr>
InChI=1S/C10H18O5/c1-9(2,3)14-7(11)13-8(12)15-10(4,5)6/h1-6H3

> <InChI Key_QSARr>
DYHSDKLCOJIUFX-UHFFFAOYSA-N

> <Salt_Solvent>


> <Salt_Solvent_ID>
0

> <MPID>
101149

> <Tr_1_Tst_0>
1

> <Ready_Biodeg>
1.0

$$$$
Row1117
  Mrv171c012251911052D          

 12 11  0  0  0  0            999 V2000
    0.7139   -1.2450    0.0000 C   0  0  0  0  0  0  0  0  0  0  0  0
   -0.0006   -1.6575    0.0000 C   0  0  0  0  0  0  0  0  0  0  0  0
    0.7139   -0.4200    0.0000 O   0  0  0  0  0  0  0  0  0  0  0  0
    1.4284   -1.6575    0.0000 O   0  0  0  0  0  0  0  0  0  0  0  0
    2.1428   -1.2450    0.0000 C   0  0  0  0  0  0  0  0  0  0  0  0
    2.1428   -0.4200    0.0000 C   0  0  0  0  0  0  0  0  0  0  0  0
    2.8573   -0.0075    0.0000 O   0  0  0  0  0  0  0  0  0  0  0  0
    2.8573   -1.6575    0.0000 C   0  0  0  0  0  0  0  0  0  0  0  0
    3.5718   -1.2450    0.0000 O   0  0  0  0  0  0  0  0  0  0  0  0
    4.2863   -1.6575    0.0000 C   0  0  0  0  0  0  0  0  0  0  0  0
    5.0007   -1.2450    0.0000 C   0  0  0  0  0  0  0  0  0  0  0  0
    4.2863   -2.4825    0.0000 O   0  0  0  0  0  0  0  0  0  0  0  0
  1  2  1  0  0  0  0
  1  3  2  0  0  0  0
  1  4  1  0  0  0  0
  4  5  1  0  0  0  0
  5  6  1  0  0  0  0
  6  7  1  0  0  0  0
  5  8  1  0  0  0  0
  8  9  1  0  0  0  0
  9 10  1  0  0  0  0
 10 11  1  0  0  0  0
 10 12  2  0  0  0  0
M  END
> <ChemID>
101179

> <CAS>
25395-31-7

> <Original_SMILES>
CC(=O)OCC(CO)OC(C)=O

> <preferred_name>
1,2,3-Propanetriol, diacetate

> <dsstox_substance_id>
DTXSID5041223

> <dsstox_compound_id>
DTXCID3021223

> <qc_level>
DSSTox_Low

> <Canonical_QSARr>
CC(=O)OCC(CO)OC(C)=O

> <InChI_Code_QSARr>
InChI=1S/C7H12O5/c1-5(9)11-4-7(3-8)12-6(2)10/h7-8H,3-4H2,1-2H3

> <InChI Key_QSARr>
UXDDRFCJKNROTO-UHFFFAOYSA-N

> <Salt_Solvent>


> <Salt_Solvent_ID>
0

> <MPID>
101151

> <Tr_1_Tst_0>
0

> <Ready_Biodeg>
1.0

$$$$
Row1118
  Mrv171c012251911052D          

 32 32  0  0  0  0            999 V2000
   -3.0798   -0.5946    0.0000 C   0  0  0  0  0  0  0  0  0  0  0  0
   -2.3653   -0.1821    0.0000 C   0  0  0  0  0  0  0  0  0  0  0  0
   -1.6509   -0.5946    0.0000 C   0  0  0  0  0  0  0  0  0  0  0  0
   -0.9364   -0.1821    0.0000 O   0  0  0  0  0  0  0  0  0  0  0  0
   -1.6509   -1.4196    0.0000 O   0  0  0  0  0  0  0  0  0  0  0  0
   -2.3653   -1.8321    0.0000 C   0  0  0  0  0  0  0  0  0  0  0  0
   -3.0798   -1.4196    0.0000 C   0  0  0  0  0  0  0  0  0  0  0  0
   -3.7943   -1.8321    0.0000 C   0  0  0  0  0  0  0  0  0  0  0  0
   -4.5088   -1.4196    0.0000 C   0  0  0  0  0  0  0  0  0  0  0  0
   -5.2232   -1.8321    0.0000 C   0  0  0  0  0  0  0  0  0  0  0  0
   -5.9377   -1.4196    0.0000 C   0  0  0  0  0  0  0  0  0  0  0  0
   -6.6522   -1.8321    0.0000 C   0  0  0  0  0  0  0  0  0  0  0  0
   -7.3666   -1.4196    0.0000 C   0  0  0  0  0  0  0  0  0  0  0  0
   -8.0811   -1.8321    0.0000 C   0  0  0  0  0  0  0  0  0  0  0  0
   -7.3666   -0.5946    0.0000 C   0  0  0  0  0  0  0  0  0  0  0  0
   -2.3653    0.6429    0.0000 C   0  0  0  0  0  0  0  0  0  0  0  0
   -1.6509    1.0554    0.0000 C   0  0  0  0  0  0  0  0  0  0  0  0
   -0.9364    0.6429    0.0000 O   0  0  0  0  0  0  0  0  0  0  0  0
   -0.2219    1.0554    0.0000 C   0  0  0  0  0  0  0  0  0  0  0  0
    0.4925    0.6429    0.0000 C   0  0  0  0  0  0  0  0  0  0  0  0
    1.2070    1.0554    0.0000 C   0  0  0  0  0  0  0  0  0  0  0  0
    1.9215    0.6429    0.0000 C   0  0  0  0  0  0  0  0  0  0  0  0
    2.6359    1.0554    0.0000 C   0  0  0  0  0  0  0  0  0  0  0  0
    3.3504    0.6429    0.0000 C   0  0  0  0  0  0  0  0  0  0  0  0
    4.0649    1.0554    0.0000 C   0  0  0  0  0  0  0  0  0  0  0  0
    4.7794    0.6429    0.0000 C   0  0  0  0  0  0  0  0  0  0  0  0
    5.4938    1.0554    0.0000 C   0  0  0  0  0  0  0  0  0  0  0  0
    4.7794   -0.1821    0.0000 C   0  0  0  0  0  0  0  0  0  0  0  0
   -1.6509    1.8804    0.0000 O   0  0  0  0  0  0  0  0  0  0  0  0
   -3.0798    1.0554    0.0000 C   0  0  0  0  0  0  0  0  0  0  0  0
   -3.7943    0.6429    0.0000 C   0  0  0  0  0  0  0  0  0  0  0  0
   -3.7943   -0.1821    0.0000 C   0  0  0  0  0  0  0  0  0  0  0  0
  2  1  1  0  0  0  0
  2  3  1  0  0  0  0
  3  4  2  0  0  0  0
  3  5  1  0  0  0  0
  5  6  1  0  0  0  0
  6  7  1  0  0  0  0
  7  8  1  0  0  0  0
  8  9  1  0  0  0  0
  9 10  1  0  0  0  0
 10 11  1  0  0  0  0
 11 12  1  0  0  0  0
 12 13  1  0  0  0  0
 13 14  1  0  0  0  0
 13 15  1  0  0  0  0
 16  2  2  0  0  0  0
 16 17  1  0  0  0  0
 17 18  1  0  0  0  0
 18 19  1  0  0  0  0
 19 20  1  0  0  0  0
 20 21  1  0  0  0  0
 21 22  1  0  0  0  0
 22 23  1  0  0  0  0
 23 24  1  0  0  0  0
 24 25  1  0  0  0  0
 25 26  1  0  0  0  0
 26 27  1  0  0  0  0
 26 28  1  0  0  0  0
 17 29  2  0  0  0  0
 30 16  1  0  0  0  0
 31 30  2  0  0  0  0
 32 31  1  0  0  0  0
  1 32  2  0  0  0  0
M  END
> <ChemID>
101182

> <CAS>
26761-40-0

> <Original_SMILES>
CC(C)CCCCCCCOC(=O)c1ccccc1C(=O)OCCCCCCCC(C)C

> <preferred_name>
bis(8-Methylnonyl) phthalate

> <dsstox_substance_id>
DTXSID4025082

> <dsstox_compound_id>
DTXCID201323299

> <qc_level>
DSSTox_High

> <Canonical_QSARr>
CC(C)CCCCCCCOC(=O)C1C=CC=CC=1C(=O)OCCCCCCCC(C)C

> <InChI_Code_QSARr>
InChI=1S/C28H46O4/c1-23(2)17-11-7-5-9-15-21-31-27(29)25-19-13-14-20-26(25)28(30)32-22-16-10-6-8-12-18-24(3)4/h13-14,19-20,23-24H,5-12,15-18,21-22H2,1-4H3

> <InChI Key_QSARr>
ZVFDTKUVRCTHQE-UHFFFAOYSA-N

> <Salt_Solvent>


> <Salt_Solvent_ID>
0

> <MPID>
101152

> <Tr_1_Tst_0>
1

> <Ready_Biodeg>
1.0

$$$$
Row1119
  Mrv171c012251911052D          

 36 37  0  0  0  0            999 V2000
    1.4289  -13.2000    0.0000 C   0  0  0  0  0  0  0  0  0  0  0  0
    2.1434  -13.6125    0.0000 C   0  0  0  0  0  0  0  0  0  0  0  0
    2.8579  -13.2000    0.0000 C   0  0  0  0  0  0  0  0  0  0  0  0
    3.5724  -13.6125    0.0000 O   0  0  0  0  0  0  0  0  0  0  0  0
    2.8579  -12.3750    0.0000 N   0  0  0  0  0  0  0  0  0  0  0  0
    3.5724  -11.9625    0.0000 C   0  0  0  0  0  0  0  0  0  0  0  0
    3.5724  -11.1375    0.0000 C   0  0  0  0  0  0  0  0  0  0  0  0
    4.2868  -10.7250    0.0000 C   0  0  0  0  0  0  0  0  0  0  0  0
    5.0013  -11.1375    0.0000 C   0  0  0  0  0  0  0  0  0  0  0  0
    5.0013  -11.9625    0.0000 C   0  0  0  0  0  0  0  0  0  0  0  0
    4.2868  -12.3750    0.0000 C   0  0  0  0  0  0  0  0  0  0  0  0
    4.2868  -13.2000    0.0000 N   0  0  0  0  0  0  0  0  0  0  0  0
    5.0013  -13.6125    0.0000 N   0  0  0  0  0  0  0  0  0  0  0  0
    5.0013  -14.4375    0.0000 C   0  0  0  0  0  0  0  0  0  0  0  0
    5.7158  -14.8500    0.0000 C   0  0  0  0  0  0  0  0  0  0  0  0
    5.7158  -15.6750    0.0000 C   0  0  0  0  0  0  0  0  0  0  0  0
    5.0013  -16.0875    0.0000 C   0  0  0  0  0  0  0  0  0  0  0  0
    4.2868  -15.6750    0.0000 C   0  0  0  0  0  0  0  0  0  0  0  0
    4.2868  -14.8500    0.0000 C   0  0  0  0  0  0  0  0  0  0  0  0
    3.5724  -14.4375    0.0000 Cl  0  0  0  0  0  0  0  0  0  0  0  0
    5.0013  -16.9125    0.0000 N   0  3  0  0  0  0  0  0  0  0  0  0
    4.2868  -17.3250    0.0000 O   0  5  0  0  0  0  0  0  0  0  0  0
    5.7158  -17.3250    0.0000 O   0  0  0  0  0  0  0  0  0  0  0  0
    4.2868   -9.9000    0.0000 N   0  0  0  0  0  0  0  0  0  0  0  0
    3.5724   -9.4875    0.0000 C   0  0  0  0  0  0  0  0  0  0  0  0
    3.5724   -8.6625    0.0000 C   0  0  0  0  0  0  0  0  0  0  0  0
    2.8579   -8.2500    0.0000 O   0  0  0  0  0  0  0  0  0  0  0  0
    2.8579   -7.4250    0.0000 C   0  0  0  0  0  0  0  0  0  0  0  0
    2.1434   -7.0125    0.0000 C   0  0  0  0  0  0  0  0  0  0  0  0
    3.5724   -7.0125    0.0000 O   0  0  0  0  0  0  0  0  0  0  0  0
    5.0013   -9.4875    0.0000 C   0  0  0  0  0  0  0  0  0  0  0  0
    5.0013   -8.6625    0.0000 C   0  0  0  0  0  0  0  0  0  0  0  0
    5.7158   -8.2500    0.0000 O   0  0  0  0  0  0  0  0  0  0  0  0
    5.7158   -7.4250    0.0000 C   0  0  0  0  0  0  0  0  0  0  0  0
    5.0013   -7.0125    0.0000 C   0  0  0  0  0  0  0  0  0  0  0  0
    6.4302   -7.0125    0.0000 O   0  0  0  0  0  0  0  0  0  0  0  0
  1  2  1  0  0  0  0
  2  3  1  0  0  0  0
  3  4  2  0  0  0  0
  3  5  1  0  0  0  0
  5  6  1  0  0  0  0
  6  7  2  0  0  0  0
  7  8  1  0  0  0  0
  8  9  2  0  0  0  0
  9 10  1  0  0  0  0
 10 11  2  0  0  0  0
  6 11  1  0  0  0  0
 12 11  1  4  0  0  0
 12 13  2  0  0  0  0
 13 14  1  0  0  0  0
 14 15  1  0  0  0  0
 15 16  2  0  0  0  0
 16 17  1  0  0  0  0
 17 18  2  0  0  0  0
 18 19  1  0  0  0  0
 14 19  2  0  0  0  0
 19 20  1  0  0  0  0
 17 21  1  0  0  0  0
 21 22  1  0  0  0  0
 21 23  2  0  0  0  0
  8 24  1  0  0  0  0
 24 25  1  0  0  0  0
 25 26  1  0  0  0  0
 26 27  1  0  0  0  0
 27 28  1  0  0  0  0
 28 29  1  0  0  0  0
 28 30  2  0  0  0  0
 24 31  1  0  0  0  0
 31 32  1  0  0  0  0
 32 33  1  0  0  0  0
 33 34  1  0  0  0  0
 34 35  1  0  0  0  0
 34 36  2  0  0  0  0
M  CHG  2  21   1  22  -1
M  END
> <ChemID>
101183

> <CAS>
26850-12-4

> <Original_SMILES>
CCC(=O)Nc1cc(ccc1N=Nc1ccc(cc1Cl)[N+]([O-])=O)N(CCOC(C)=O)CCOC(C)=O

> <preferred_name>
Disperse Red 167

> <dsstox_substance_id>
DTXSID1067259

> <dsstox_compound_id>
DTXCID4037580

> <qc_level>
Public_High

> <Canonical_QSARr>
CCC(=O)NC1=CC(=CC=C1N=NC1C=CC(=CC=1Cl)[N+]([O-])=O)N(CCOC(C)=O)CCOC(C)=O

> <InChI_Code_QSARr>
InChI=1S/C23H26ClN5O7/c1-4-23(32)25-22-14-17(28(9-11-35-15(2)30)10-12-36-16(3)31)5-8-21(22)27-26-20-7-6-18(29(33)34)13-19(20)24/h5-8,13-14H,4,9-12H2,1-3H3,(H,25,32)

> <InChI Key_QSARr>
ZDORFLXCSSFUIE-UHFFFAOYSA-N

> <Salt_Solvent>


> <Salt_Solvent_ID>
0

> <MPID>
101153

> <Tr_1_Tst_0>
1

> <Ready_Biodeg>
0.0

$$$$
Row1120
  Mrv171c012251911052D          

 20 19  0  0  0  0            999 V2000
    0.6473   -0.0843    0.0000 C   0  0  0  0  0  0  0  0  0  0  0  0
   -0.0672    0.3282    0.0000 N   0  0  0  0  0  0  0  0  0  0  0  0
    1.3618   -0.4968    0.0000 C   0  0  0  0  0  0  0  0  0  0  0  0
    2.0763   -0.0843    0.0000 C   0  0  0  0  0  0  0  0  0  0  0  0
    2.7907   -0.4968    0.0000 C   0  0  0  0  0  0  0  0  0  0  0  0
    3.5052   -0.0843    0.0000 C   0  0  0  0  0  0  0  0  0  0  0  0
    4.2197   -0.4968    0.0000 C   0  0  0  0  0  0  0  0  0  0  0  0
    4.9341   -0.0843    0.0000 C   0  0  0  0  0  0  0  0  0  0  0  0
    5.6486   -0.4968    0.0000 C   0  0  0  0  0  0  0  0  0  0  0  0
    6.3631   -0.0843    0.0000 C   0  0  0  0  0  0  0  0  0  0  0  0
    7.0775   -0.4968    0.0000 C   0  0  0  0  0  0  0  0  0  0  0  0
    7.7920   -0.0843    0.0000 C   0  0  0  0  0  0  0  0  0  0  0  0
    8.5065   -0.4968    0.0000 C   0  0  0  0  0  0  0  0  0  0  0  0
    9.2210   -0.0843    0.0000 C   0  0  0  0  0  0  0  0  0  0  0  0
    9.9354   -0.4968    0.0000 C   0  0  0  0  0  0  0  0  0  0  0  0
   10.6499   -0.0843    0.0000 C   0  0  0  0  0  0  0  0  0  0  0  0
   11.3644   -0.4968    0.0000 C   0  0  0  0  0  0  0  0  0  0  0  0
   12.0788   -0.0843    0.0000 C   0  0  0  0  0  0  0  0  0  0  0  0
   12.7933   -0.4968    0.0000 C   0  0  0  0  0  0  0  0  0  0  0  0
   13.5078   -0.0843    0.0000 C   0  0  0  0  0  0  0  0  0  0  0  0
  1  2  3  0  0  0  0
  1  3  1  0  0  0  0
  3  4  1  0  0  0  0
  4  5  1  0  0  0  0
  5  6  1  0  0  0  0
  6  7  1  0  0  0  0
  7  8  1  0  0  0  0
  8  9  1  0  0  0  0
  9 10  1  0  0  0  0
 10 11  1  0  0  0  0
 11 12  1  0  0  0  0
 12 13  1  0  0  0  0
 13 14  1  0  0  0  0
 14 15  1  0  0  0  0
 15 16  1  0  0  0  0
 16 17  1  0  0  0  0
 17 18  1  0  0  0  0
 18 19  1  0  0  0  0
 19 20  1  0  0  0  0
M  END
> <ChemID>
101184

> <CAS>
28623-46-3

> <Original_SMILES>
CCCCCCCCCCCCCCCCCCC#N

> <preferred_name>
Nitriles, C16-22

> <dsstox_substance_id>
DTXSID50873468

> <dsstox_compound_id>
DTXCID508396

> <qc_level>
DSSTox_Low

> <Canonical_QSARr>
CCCCCCCCCCCCCCCCCCC#N

> <InChI_Code_QSARr>
InChI=1S/C19H37N/c1-2-3-4-5-6-7-8-9-10-11-12-13-14-15-16-17-18-19-20/h2-18H2,1H3

> <InChI Key_QSARr>
MVDGSHXQMOKTDJ-UHFFFAOYSA-N

> <Salt_Solvent>


> <Salt_Solvent_ID>
0

> <MPID>
101154

> <Tr_1_Tst_0>
1

> <Ready_Biodeg>
1.0

$$$$
Row1121
  Mrv171c012251911052D          

 10  9  0  0  0  0            999 V2000
    1.6643    0.6188    0.0000 Br  0  0  0  0  0  0  0  0  0  0  0  0
    2.3787    0.2063    0.0000 C   0  0  0  0  0  0  0  0  0  0  0  0
    3.0932    0.6188    0.0000 C   0  0  0  0  0  0  0  0  0  0  0  0
    3.8077    0.2063    0.0000 C   0  0  0  0  0  0  0  0  0  0  0  0
    4.5221    0.6188    0.0000 C   0  0  0  0  0  0  0  0  0  0  0  0
    5.2366    0.2063    0.0000 C   0  0  0  0  0  0  0  0  0  0  0  0
    5.9511    0.6188    0.0000 C   0  0  0  0  0  0  0  0  0  0  0  0
    6.6656    0.2063    0.0000 C   0  0  0  0  0  0  0  0  0  0  0  0
    7.3800    0.6188    0.0000 O   0  0  0  0  0  0  0  0  0  0  0  0
    6.6656   -0.6187    0.0000 O   0  0  0  0  0  0  0  0  0  0  0  0
  1  2  1  0  0  0  0
  2  3  1  0  0  0  0
  3  4  1  0  0  0  0
  4  5  1  0  0  0  0
  5  6  1  0  0  0  0
  6  7  1  0  0  0  0
  7  8  1  0  0  0  0
  8  9  2  0  0  0  0
  8 10  1  0  0  0  0
M  END
> <ChemID>
101185

> <CAS>
30515-28-7

> <Original_SMILES>
OC(=O)CCCCCCBr

> <preferred_name>
7-Bromoheptanoic acid

> <dsstox_substance_id>
DTXSID30184584

> <dsstox_compound_id>
DTXCID70107075

> <qc_level>
Public_Medium

> <Canonical_QSARr>
OC(=O)CCCCCCBr

> <InChI_Code_QSARr>
InChI=1S/C7H13BrO2/c8-6-4-2-1-3-5-7(9)10/h1-6H2,(H,9,10)

> <InChI Key_QSARr>
JLPQXFFMVVPIRW-UHFFFAOYSA-N

> <Salt_Solvent>


> <Salt_Solvent_ID>
0

> <MPID>
101155

> <Tr_1_Tst_0>
0

> <Ready_Biodeg>
1.0

$$$$
Row1122
  Mrv171c012251911052D          

 10  9  0  0  0  0            999 V2000
    1.9714   -0.8937    0.0000 P   0  0  0  0  0  0  0  0  0  0  0  0
    1.5589   -0.1792    0.0000 O   0  0  0  0  0  0  0  0  0  0  0  0
    1.9714    0.5352    0.0000 C   0  0  0  0  0  0  0  0  0  0  0  0
    1.2569   -1.3062    0.0000 S   0  0  0  0  0  0  0  0  0  0  0  0
    0.5424   -0.8937    0.0000 C   0  0  0  0  0  0  0  0  0  0  0  0
    2.6858   -0.4812    0.0000 O   0  0  0  0  0  0  0  0  0  0  0  0
    2.3839   -1.6082    0.0000 N   0  0  0  0  0  0  0  0  0  0  0  0
    1.9714   -2.3227    0.0000 C   0  0  0  0  0  0  0  0  0  0  0  0
    2.3839   -3.0371    0.0000 C   0  0  0  0  0  0  0  0  0  0  0  0
    1.1464   -2.3227    0.0000 O   0  0  0  0  0  0  0  0  0  0  0  0
  1  2  1  0  0  0  0
  2  3  1  0  0  0  0
  1  4  1  0  0  0  0
  4  5  1  0  0  0  0
  1  6  2  0  0  0  0
  1  7  1  0  0  0  0
  7  8  1  0  0  0  0
  8  9  1  0  0  0  0
  8 10  2  0  0  0  0
M  END
> <ChemID>
101186

> <CAS>
30560-19-1

> <Original_SMILES>
COP(=O)(NC(C)=O)SC

> <preferred_name>
Acephate

> <dsstox_substance_id>
DTXSID8023846

> <dsstox_compound_id>
DTXCID503846

> <qc_level>
DSSTox_Low

> <Canonical_QSARr>
COP(=O)(NC(C)=O)SC

> <InChI_Code_QSARr>
InChI=1S/C4H10NO3PS/c1-4(6)5-9(7,8-2)10-3/h1-3H3,(H,5,6,7)

> <InChI Key_QSARr>
YASYVMFAVPKPKE-UHFFFAOYSA-N

> <Salt_Solvent>


> <Salt_Solvent_ID>
0

> <MPID>
101156

> <Tr_1_Tst_0>
1

> <Ready_Biodeg>
1.0

$$$$
Row1123
  Mrv171c012251911052D          

 15 15  0  0  0  0            999 V2000
    3.4804   -3.4902    0.0000 C   0  0  0  0  0  0  0  0  0  0  0  0
    3.4804   -4.3152    0.0000 C   0  0  0  0  0  0  0  0  0  0  0  0
    2.7659   -4.7277    0.0000 O   0  0  0  0  0  0  0  0  0  0  0  0
    4.1949   -3.0777    0.0000 C   0  0  0  0  0  0  0  0  0  0  0  0
    4.1949   -2.2527    0.0000 C   0  0  0  0  0  0  0  0  0  0  0  0
    3.4804   -1.8402    0.0000 C   0  0  0  0  0  0  0  0  0  0  0  0
    3.4804   -1.0152    0.0000 C   0  0  0  0  0  0  0  0  0  0  0  0
    2.7659   -0.6027    0.0000 C   0  0  0  0  0  0  0  0  0  0  0  0
    2.7659    0.2223    0.0000 C   0  0  0  0  0  0  0  0  0  0  0  0
    2.0514    0.6348    0.0000 C   0  0  0  0  0  0  0  0  0  0  0  0
    1.3370    1.0473    0.0000 C   0  0  0  0  0  0  0  0  0  0  0  0
    2.4639    1.3492    0.0000 O   0  0  0  0  0  0  0  0  0  0  0  0
    1.6389   -0.0797    0.0000 C   0  0  0  0  0  0  0  0  0  0  0  0
    2.7659   -2.2527    0.0000 C   0  0  0  0  0  0  0  0  0  0  0  0
    2.7659   -3.0777    0.0000 C   0  0  0  0  0  0  0  0  0  0  0  0
  1  2  1  0  0  0  0
  2  3  2  0  0  0  0
  4  1  1  0  0  0  0
  5  4  1  0  0  0  0
  6  5  1  0  0  0  0
  6  7  1  0  0  0  0
  7  8  1  0  0  0  0
  8  9  1  0  0  0  0
  9 10  1  0  0  0  0
 10 11  1  0  0  0  0
 10 12  1  0  0  0  0
 10 13  1  0  0  0  0
 14  6  2  0  0  0  0
 15 14  1  0  0  0  0
  1 15  1  0  0  0  0
M  END
> <ChemID>
101188

> <CAS>
31906-04-4

> <Original_SMILES>
CC(C)(O)CCCC1CCC(CC=1)C=O

> <preferred_name>
4-(4-Hydroxy-4-methylpentyl)cyclohex-3-ene-1-carbaldehyde

> <dsstox_substance_id>
DTXSID1027970

> <dsstox_compound_id>
DTXCID607970

> <qc_level>
DSSTox_Low

> <Canonical_QSARr>
CC(C)(O)CCCC1CCC(CC=1)C=O

> <InChI_Code_QSARr>
InChI=1S/C13H22O2/c1-13(2,15)9-3-4-11-5-7-12(10-14)8-6-11/h5,10,12,15H,3-4,6-9H2,1-2H3

> <InChI Key_QSARr>
ORMHZBNNECIKOH-UHFFFAOYSA-N

> <Salt_Solvent>


> <Salt_Solvent_ID>
0

> <MPID>
101157

> <Tr_1_Tst_0>
1

> <Ready_Biodeg>
1.0

$$$$
Row1124
  Mrv171c012251911052D          

 24 23  0  0  0  0            999 V2000
   13.5633   -0.8200    0.0000 C   0  0  0  0  0  0  0  0  0  0  0  0
   13.5633    0.0050    0.0000 O   0  0  0  0  0  0  0  0  0  0  0  0
   12.8489   -1.2325    0.0000 O   0  0  0  0  0  0  0  0  0  0  0  0
   12.1344   -0.8200    0.0000 C   0  0  0  0  0  0  0  0  0  0  0  0
   11.4199   -1.2325    0.0000 C   0  0  0  0  0  0  0  0  0  0  0  0
   10.7054   -0.8200    0.0000 C   0  0  0  0  0  0  0  0  0  0  0  0
    9.9910   -1.2325    0.0000 C   0  0  0  0  0  0  0  0  0  0  0  0
    9.2765   -0.8200    0.0000 C   0  0  0  0  0  0  0  0  0  0  0  0
    8.5620   -1.2325    0.0000 C   0  0  0  0  0  0  0  0  0  0  0  0
    7.8476   -0.8200    0.0000 C   0  0  0  0  0  0  0  0  0  0  0  0
    7.1331   -1.2325    0.0000 C   0  0  0  0  0  0  0  0  0  0  0  0
    6.4186   -0.8200    0.0000 C   0  0  0  0  0  0  0  0  0  0  0  0
    5.7041   -1.2325    0.0000 C   0  0  0  0  0  0  0  0  0  0  0  0
    4.9897   -0.8200    0.0000 C   0  0  0  0  0  0  0  0  0  0  0  0
    4.2752   -1.2325    0.0000 C   0  0  0  0  0  0  0  0  0  0  0  0
    3.5607   -0.8200    0.0000 C   0  0  0  0  0  0  0  0  0  0  0  0
    2.8463   -1.2325    0.0000 C   0  0  0  0  0  0  0  0  0  0  0  0
    2.1318   -0.8200    0.0000 C   0  0  0  0  0  0  0  0  0  0  0  0
    1.4173   -1.2325    0.0000 C   0  0  0  0  0  0  0  0  0  0  0  0
    0.7028   -0.8200    0.0000 C   0  0  0  0  0  0  0  0  0  0  0  0
   -0.0116   -1.2325    0.0000 C   0  0  0  0  0  0  0  0  0  0  0  0
   14.2778   -1.2325    0.0000 C   0  0  0  0  0  0  0  0  0  0  0  0
   14.9923   -0.8200    0.0000 C   0  0  0  0  0  0  0  0  0  0  0  0
   14.2778   -2.0575    0.0000 C   0  0  0  0  0  0  0  0  0  0  0  0
  1  2  2  0  0  0  0
  1  3  1  0  0  0  0
  3  4  1  0  0  0  0
  4  5  1  0  0  0  0
  5  6  1  0  0  0  0
  6  7  1  0  0  0  0
  7  8  1  0  0  0  0
  8  9  1  0  0  0  0
  9 10  1  0  0  0  0
 10 11  1  0  0  0  0
 11 12  1  0  0  0  0
 12 13  1  0  0  0  0
 13 14  1  0  0  0  0
 14 15  1  0  0  0  0
 15 16  1  0  0  0  0
 16 17  1  0  0  0  0
 17 18  1  0  0  0  0
 18 19  1  0  0  0  0
 19 20  1  0  0  0  0
 20 21  1  0  0  0  0
  1 22  1  0  0  0  0
 22 23  1  0  0  0  0
 22 24  2  0  0  0  0
M  END
> <ChemID>
101189

> <CAS>
32360-05-7

> <Original_SMILES>
CC(=C)C(=O)OCCCCCCCCCCCCCCCCCC

> <preferred_name>
Stearyl methacrylate

> <dsstox_substance_id>
DTXSID6027975

> <dsstox_compound_id>
DTXCID607975

> <qc_level>
DSSTox_Low

> <Canonical_QSARr>
CC(=C)C(=O)OCCCCCCCCCCCCCCCCCC

> <InChI_Code_QSARr>
InChI=1S/C22H42O2/c1-4-5-6-7-8-9-10-11-12-13-14-15-16-17-18-19-20-24-22(23)21(2)3/h2,4-20H2,1,3H3

> <InChI Key_QSARr>
HMZGPNHSPWNGEP-UHFFFAOYSA-N

> <Salt_Solvent>


> <Salt_Solvent_ID>
0

> <MPID>
101158

> <Tr_1_Tst_0>
1

> <Ready_Biodeg>
1.0

$$$$
Row1125
  Mrv171c012251911052D          

 19 18  0  0  0  0            999 V2000
    3.6062   -2.8855    0.0000 C   0  0  0  0  0  0  0  0  0  0  0  0
    2.8917   -3.2980    0.0000 N   0  0  0  0  0  0  0  0  0  0  0  0
    2.8917   -4.1230    0.0000 C   0  0  0  0  0  0  0  0  0  0  0  0
    3.6062   -4.5355    0.0000 C   0  0  0  0  0  0  0  0  0  0  0  0
    3.6062   -5.3605    0.0000 C   0  0  0  0  0  0  0  0  0  0  0  0
    4.3207   -5.7730    0.0000 N   0  0  0  0  0  0  0  0  0  0  0  0
    4.3207   -6.5980    0.0000 C   0  0  0  0  0  0  0  0  0  0  0  0
    5.0351   -5.3605    0.0000 C   0  0  0  0  0  0  0  0  0  0  0  0
    2.1773   -2.8855    0.0000 C   0  0  0  0  0  0  0  0  0  0  0  0
    2.1773   -2.0605    0.0000 C   0  0  0  0  0  0  0  0  0  0  0  0
    1.4628   -1.6480    0.0000 C   0  0  0  0  0  0  0  0  0  0  0  0
    1.4628   -0.8230    0.0000 N   0  0  0  0  0  0  0  0  0  0  0  0
    0.7483   -0.4105    0.0000 C   0  0  0  0  0  0  0  0  0  0  0  0
    2.1773   -0.4105    0.0000 C   0  0  0  0  0  0  0  0  0  0  0  0
    3.6062   -2.0605    0.0000 C   0  0  0  0  0  0  0  0  0  0  0  0
    4.3207   -1.6480    0.0000 C   0  0  0  0  0  0  0  0  0  0  0  0
    4.3207   -0.8230    0.0000 N   0  0  0  0  0  0  0  0  0  0  0  0
    3.6062   -0.4105    0.0000 C   0  0  0  0  0  0  0  0  0  0  0  0
    5.0351   -0.4105    0.0000 C   0  0  0  0  0  0  0  0  0  0  0  0
  1  2  1  0  0  0  0
  2  3  1  0  0  0  0
  3  4  1  0  0  0  0
  4  5  1  0  0  0  0
  5  6  1  0  0  0  0
  6  7  1  0  0  0  0
  6  8  1  0  0  0  0
  2  9  1  0  0  0  0
  9 10  1  0  0  0  0
 10 11  1  0  0  0  0
 11 12  1  0  0  0  0
 12 13  1  0  0  0  0
 12 14  1  0  0  0  0
  1 15  1  0  0  0  0
 15 16  1  0  0  0  0
 16 17  1  0  0  0  0
 17 18  1  0  0  0  0
 17 19  1  0  0  0  0
M  END
> <ChemID>
101190

> <CAS>
33329-35-0

> <Original_SMILES>
CN(C)CCCN(CCCN(C)C)CCCN(C)C

> <preferred_name>
N,N-Bis[3-(dimethylamino)propyl]-N',N'-dimethylpropane-1,3-diamine

> <dsstox_substance_id>
DTXSID5052703

> <dsstox_compound_id>
DTXCID7031327

> <qc_level>
DSSTox_Low

> <Canonical_QSARr>
CN(C)CCCN(CCCN(C)C)CCCN(C)C

> <InChI_Code_QSARr>
InChI=1S/C15H36N4/c1-16(2)10-7-13-19(14-8-11-17(3)4)15-9-12-18(5)6/h7-15H2,1-6H3

> <InChI Key_QSARr>
DTKANQSCBACEPK-UHFFFAOYSA-N

> <Salt_Solvent>


> <Salt_Solvent_ID>
0

> <MPID>
101159

> <Tr_1_Tst_0>
0

> <Ready_Biodeg>
0.0

$$$$
Row1126
  Mrv171c012251911052D          

  6  5  0  0  0  0            999 V2000
    1.4806   -0.0667    0.0000 C   0  0  0  0  0  0  0  0  0  0  0  0
    1.8931    0.6477    0.0000 O   0  0  0  0  0  0  0  0  0  0  0  0
    1.8931   -0.7812    0.0000 C   0  0  0  0  0  0  0  0  0  0  0  0
    1.4806   -1.4957    0.0000 N   0  0  0  0  0  0  0  0  0  0  0  0
    1.8931   -2.2102    0.0000 O   0  0  0  0  0  0  0  0  0  0  0  0
    0.6556   -1.4957    0.0000 C   0  0  0  0  0  0  0  0  0  0  0  0
  1  2  1  0  0  0  0
  1  3  1  0  0  0  0
  3  4  1  0  0  0  0
  4  5  1  0  0  0  0
  4  6  1  0  0  0  0
M  END
> <ChemID>
101191

> <CAS>
34375-28-5

> <Original_SMILES>
CN(O)CCO

> <preferred_name>
2-(Hydroxymethylamino)ethanol

> <dsstox_substance_id>
DTXSID4029357

> <dsstox_compound_id>
DTXCID809357

> <qc_level>
DSSTox_High

> <Canonical_QSARr>
CN(O)CCO

> <InChI_Code_QSARr>
InChI=1S/C3H9NO2/c1-4(6)2-3-5/h5-6H,2-3H2,1H3

> <InChI Key_QSARr>
KNYGFYTZAQKWSZ-UHFFFAOYSA-N

> <Salt_Solvent>


> <Salt_Solvent_ID>
0

> <MPID>
101160|101161

> <Tr_1_Tst_0>
1

> <Ready_Biodeg>
1.0

$$$$
Row1127
  Mrv171c012251911052D          

 11 10  0  0  0  0            999 V2000
    1.2526   -2.3647    0.0000 C   0  0  0  0  0  0  0  0  0  0  0  0
    1.2526   -3.1897    0.0000 O   0  0  0  0  0  0  0  0  0  0  0  0
    0.5382   -1.9522    0.0000 O   0  0  0  0  0  0  0  0  0  0  0  0
    1.9671   -1.9522    0.0000 C   0  0  0  0  0  0  0  0  0  0  0  0
    2.6816   -2.3647    0.0000 N   0  0  0  0  0  0  0  0  0  0  0  0
    1.9671   -1.1272    0.0000 C   0  0  0  0  0  0  0  0  0  0  0  0
    2.6816   -0.7147    0.0000 C   0  0  0  0  0  0  0  0  0  0  0  0
    2.6816    0.1103    0.0000 P   0  0  0  0  0  0  0  0  0  0  0  0
    2.6816    0.9353    0.0000 O   0  0  0  0  0  0  0  0  0  0  0  0
    3.5066    0.1103    0.0000 C   0  0  0  0  0  0  0  0  0  0  0  0
    1.8566    0.1103    0.0000 O   0  0  0  0  0  0  0  0  0  0  0  0
  1  2  1  0  0  0  0
  1  3  2  0  0  0  0
  1  4  1  0  0  0  0
  4  5  1  0  0  0  0
  4  6  1  0  0  0  0
  6  7  1  0  0  0  0
  7  8  1  0  0  0  0
  8  9  2  0  0  0  0
  8 10  1  0  0  0  0
  8 11  1  0  0  0  0
M  END
> <ChemID>
101192

> <CAS>
51276-47-2

> <Original_SMILES>
CP(O)(=O)CCC(N)C(O)=O

> <preferred_name>
Glufosinate

> <dsstox_substance_id>
DTXSID0043973

> <dsstox_compound_id>
DTXCID8023973

> <qc_level>
DSSTox_High

> <Canonical_QSARr>
CP(O)(=O)CCC(N)C(O)=O

> <InChI_Code_QSARr>
InChI=1S/C5H12NO4P/c1-11(9,10)3-2-4(6)5(7)8/h4H,2-3,6H2,1H3,(H,7,8)(H,9,10)

> <InChI Key_QSARr>
IAJOBQBIJHVGMQ-UHFFFAOYSA-N

> <Salt_Solvent>


> <Salt_Solvent_ID>
0

> <MPID>
101162

> <Tr_1_Tst_0>
1

> <Ready_Biodeg>
1.0

$$$$
Row1128
  Mrv171c012251911052D          

 16 17  0  0  0  0            999 V2000
    1.7032   -1.2210    0.0000 C   0  0  0  0  0  0  0  0  0  0  0  0
    1.7032   -0.3960    0.0000 C   0  0  0  0  0  0  0  0  0  0  0  0
    0.9887    0.0165    0.0000 C   0  0  0  0  0  0  0  0  0  0  0  0
    0.9887    0.8415    0.0000 Cl  0  0  0  0  0  0  0  0  0  0  0  0
    0.2743   -0.3960    0.0000 C   0  0  0  0  0  0  0  0  0  0  0  0
    0.2743   -1.2210    0.0000 C   0  0  0  0  0  0  0  0  0  0  0  0
    0.9887   -1.6335    0.0000 C   0  0  0  0  0  0  0  0  0  0  0  0
    0.9887   -2.4585    0.0000 Cl  0  0  0  0  0  0  0  0  0  0  0  0
    2.4177   -1.6335    0.0000 C   0  0  0  0  0  0  0  0  0  0  0  0
    2.4177   -2.4585    0.0000 C   0  0  0  0  0  0  0  0  0  0  0  0
    3.1321   -2.8710    0.0000 C   0  0  0  0  0  0  0  0  0  0  0  0
    3.1321   -3.6960    0.0000 Cl  0  0  0  0  0  0  0  0  0  0  0  0
    3.8466   -2.4585    0.0000 C   0  0  0  0  0  0  0  0  0  0  0  0
    3.8466   -1.6335    0.0000 C   0  0  0  0  0  0  0  0  0  0  0  0
    3.1321   -1.2210    0.0000 C   0  0  0  0  0  0  0  0  0  0  0  0
    3.1321   -0.3960    0.0000 Cl  0  0  0  0  0  0  0  0  0  0  0  0
  2  1  1  0  0  0  0
  3  2  2  0  0  0  0
  3  4  1  0  0  0  0
  5  3  1  0  0  0  0
  6  5  2  0  0  0  0
  7  6  1  0  0  0  0
  1  7  2  0  0  0  0
  7  8  1  0  0  0  0
  1  9  1  0  0  0  0
 10  9  1  0  0  0  0
 11 10  2  0  0  0  0
 11 12  1  0  0  0  0
 13 11  1  0  0  0  0
 14 13  2  0  0  0  0
 15 14  1  0  0  0  0
  9 15  2  0  0  0  0
 15 16  1  0  0  0  0
M  END
> <ChemID>
101193

> <CAS>
35693-99-3

> <Original_SMILES>
Clc1cc(-c2cc(Cl)ccc2Cl)c(Cl)cc1

> <preferred_name>
2,2',5,5'-Tetrachlorobiphenyl

> <dsstox_substance_id>
DTXSID3038305

> <dsstox_compound_id>
DTXCID1018305

> <qc_level>
DSSTox_Low

> <Canonical_QSARr>
ClC1=CC(C2C=C(Cl)C=CC=2Cl)=C(Cl)C=C1

> <InChI_Code_QSARr>
InChI=1S/C12H6Cl4/c13-7-1-3-11(15)9(5-7)10-6-8(14)2-4-12(10)16/h1-6H

> <InChI Key_QSARr>
HCWZEPKLWVAEOV-UHFFFAOYSA-N

> <Salt_Solvent>


> <Salt_Solvent_ID>
0

> <MPID>
101163

> <Tr_1_Tst_0>
1

> <Ready_Biodeg>
0.0

$$$$
Row1129
  Mrv171c012251911052D          

 17 16  0  0  0  0            999 V2000
    4.9319   -0.1499    0.0000 C   0  0  0  0  0  0  0  0  0  0  0  0
    4.2174   -0.5624    0.0000 C   0  0  0  0  0  0  0  0  0  0  0  0
    3.5030   -0.1499    0.0000 C   0  0  0  0  0  0  0  0  0  0  0  0
    5.6464   -0.5624    0.0000 C   0  0  0  0  0  0  0  0  0  0  0  0
    6.3609   -0.1499    0.0000 C   0  0  0  0  0  0  0  0  0  0  0  0
    7.0753   -0.5624    0.0000 C   0  0  0  0  0  0  0  0  0  0  0  0
    7.7898   -0.1499    0.0000 C   0  0  0  0  0  0  0  0  0  0  0  0
    8.5043   -0.5624    0.0000 C   0  0  0  0  0  0  0  0  0  0  0  0
    9.2187   -0.1499    0.0000 C   0  0  0  0  0  0  0  0  0  0  0  0
    9.9332   -0.5624    0.0000 C   0  0  0  0  0  0  0  0  0  0  0  0
   10.6477   -0.1499    0.0000 C   0  0  0  0  0  0  0  0  0  0  0  0
   11.3622   -0.5624    0.0000 C   0  0  0  0  0  0  0  0  0  0  0  0
   12.0766   -0.1499    0.0000 C   0  0  0  0  0  0  0  0  0  0  0  0
   12.7911   -0.5624    0.0000 C   0  0  0  0  0  0  0  0  0  0  0  0
   13.5056   -0.1499    0.0000 C   0  0  0  0  0  0  0  0  0  0  0  0
   14.2200   -0.5624    0.0000 C   0  0  0  0  0  0  0  0  0  0  0  0
   14.9345   -0.1499    0.0000 O   0  0  0  0  0  0  0  0  0  0  0  0
  1  2  1  0  0  0  0
  2  3  1  0  0  0  0
  1  4  1  0  0  0  0
  4  5  1  0  0  0  0
  5  6  1  0  0  0  0
  6  7  1  0  0  0  0
  7  8  1  0  0  0  0
  8  9  1  0  0  0  0
  9 10  1  0  0  0  0
 10 11  1  0  0  0  0
 11 12  1  0  0  0  0
 12 13  1  0  0  0  0
 13 14  1  0  0  0  0
 14 15  1  0  0  0  0
 15 16  1  0  0  0  0
 16 17  1  0  0  0  0
M  END
> <ChemID>
101195

> <CAS>
36653-82-4

> <Original_SMILES>
CCCCCCCCCCCCCCCCO

> <preferred_name>
1-Hexadecanol

> <dsstox_substance_id>
DTXSID4027991

> <dsstox_compound_id>
DTXCID607991

> <qc_level>
DSSTox_High

> <Canonical_QSARr>
CCCCCCCCCCCCCCCCO

> <InChI_Code_QSARr>
InChI=1S/C16H34O/c1-2-3-4-5-6-7-8-9-10-11-12-13-14-15-16-17/h17H,2-16H2,1H3

> <InChI Key_QSARr>
BXWNKGSJHAJOGX-UHFFFAOYSA-N

> <Salt_Solvent>


> <Salt_Solvent_ID>
0

> <MPID>
101164

> <Tr_1_Tst_0>
0

> <Ready_Biodeg>
1.0

$$$$
Row1130
  Mrv171c012251911052D          

 12 12  0  0  0  0            999 V2000
    1.4713   -1.1343    0.0000 O   0  0  0  0  0  0  0  0  0  0  0  0
    0.7569   -0.7218    0.0000 C   0  0  0  0  0  0  0  0  0  0  0  0
    2.1858   -0.7218    0.0000 C   0  0  0  0  0  0  0  0  0  0  0  0
    2.9003   -1.1343    0.0000 N   0  0  0  0  0  0  0  0  0  0  0  0
    3.6147   -0.7218    0.0000 C   0  0  0  0  0  0  0  0  0  0  0  0
    4.3292   -1.1343    0.0000 C   0  0  0  0  0  0  0  0  0  0  0  0
    5.0437   -0.7218    0.0000 C   0  0  0  0  0  0  0  0  0  0  0  0
    5.0437    0.1032    0.0000 C   0  0  0  0  0  0  0  0  0  0  0  0
    4.3292    0.5157    0.0000 C   0  0  0  0  0  0  0  0  0  0  0  0
    4.3292    1.3407    0.0000 C   0  0  0  0  0  0  0  0  0  0  0  0
    3.6147    0.1032    0.0000 C   0  0  0  0  0  0  0  0  0  0  0  0
    2.1858    0.1032    0.0000 O   0  0  0  0  0  0  0  0  0  0  0  0
  1  2  1  0  0  0  0
  1  3  1  0  0  0  0
  3  4  1  0  0  0  0
  4  5  1  0  0  0  0
  6  5  2  0  0  0  0
  7  6  1  0  0  0  0
  8  7  2  0  0  0  0
  9  8  1  0  0  0  0
  9 10  1  0  0  0  0
 11  9  2  0  0  0  0
  5 11  1  0  0  0  0
  3 12  2  0  0  0  0
M  END
> <ChemID>
101196

> <CAS>
39076-18-1

> <Original_SMILES>
Cc1cc(ccc1)NC(=O)OC

> <preferred_name>
Carbamic acid, (3-methylphenyl)-, methyl ester

> <dsstox_substance_id>
DTXSID60192319

> <dsstox_compound_id>
DTXCID20114810

> <qc_level>
Public_Medium

> <Canonical_QSARr>
CC1C=CC=C(C=1)NC(=O)OC

> <InChI_Code_QSARr>
InChI=1S/C9H11NO2/c1-7-4-3-5-8(6-7)10-9(11)12-2/h3-6H,1-2H3,(H,10,11)

> <InChI Key_QSARr>
YYKXNDIQHDVJKF-UHFFFAOYSA-N

> <Salt_Solvent>


> <Salt_Solvent_ID>
0

> <MPID>
101165

> <Tr_1_Tst_0>
1

> <Ready_Biodeg>
1.0

$$$$
Row1131
  Mrv171c012251911052D          

 15 16  0  0  0  0            999 V2000
    0.7548   -2.4489    0.0000 C   0  0  0  0  0  0  0  0  0  0  0  0
    1.4692   -2.0364    0.0000 C   0  0  0  0  0  0  0  0  0  0  0  0
    2.1837   -2.4489    0.0000 C   0  0  0  0  0  0  0  0  0  0  0  0
    2.8982   -2.0364    0.0000 C   0  0  0  0  0  0  0  0  0  0  0  0
    2.8982   -1.2114    0.0000 C   0  0  0  0  0  0  0  0  0  0  0  0
    2.1837   -0.7989    0.0000 C   0  0  0  0  0  0  0  0  0  0  0  0
    2.1837    0.0261    0.0000 O   0  0  0  0  0  0  0  0  0  0  0  0
    2.8982    0.4386    0.0000 C   0  0  0  0  0  0  0  0  0  0  0  0
    3.6126    0.0261    0.0000 C   0  0  0  0  0  0  0  0  0  0  0  0
    4.3271    0.4386    0.0000 C   0  0  0  0  0  0  0  0  0  0  0  0
    4.3271    1.2636    0.0000 C   0  0  0  0  0  0  0  0  0  0  0  0
    3.6126    1.6761    0.0000 C   0  0  0  0  0  0  0  0  0  0  0  0
    2.8982    1.2636    0.0000 C   0  0  0  0  0  0  0  0  0  0  0  0
    1.4692   -1.2114    0.0000 C   0  0  0  0  0  0  0  0  0  0  0  0
    0.7548   -3.2739    0.0000 O   0  0  0  0  0  0  0  0  0  0  0  0
  1  2  1  0  0  0  0
  3  2  1  0  0  0  0
  4  3  2  0  0  0  0
  5  4  1  0  0  0  0
  6  5  2  0  0  0  0
  6  7  1  0  0  0  0
  7  8  1  0  0  0  0
  9  8  1  0  0  0  0
 10  9  2  0  0  0  0
 11 10  1  0  0  0  0
 12 11  2  0  0  0  0
 13 12  1  0  0  0  0
  8 13  2  0  0  0  0
 14  6  1  0  0  0  0
  2 14  2  0  0  0  0
  1 15  2  0  0  0  0
M  END
> <ChemID>
101197

> <CAS>
39515-51-0

> <Original_SMILES>
O=Cc1cc(ccc1)Oc1ccccc1

> <preferred_name>
3-Phenoxybenzaldehyde

> <dsstox_substance_id>
DTXSID3028005

> <dsstox_compound_id>
DTXCID808005

> <qc_level>
DSSTox_Low

> <Canonical_QSARr>
O=CC1=CC(=CC=C1)OC1C=CC=CC=1

> <InChI_Code_QSARr>
InChI=1S/C13H10O2/c14-10-11-5-4-8-13(9-11)15-12-6-2-1-3-7-12/h1-10H

> <InChI Key_QSARr>
MRLGCTNJRREZHZ-UHFFFAOYSA-N

> <Salt_Solvent>


> <Salt_Solvent_ID>
0

> <MPID>
101166

> <Tr_1_Tst_0>
1

> <Ready_Biodeg>
0.0

$$$$
Row1132
  Mrv171c012251911052D          

 33 35  0  0  0  0            999 V2000
   -0.1105   -7.6164    0.0000 N   0  0  0  0  0  0  0  0  0  0  0  0
    0.3020   -6.9020    0.0000 C   0  0  0  0  0  0  0  0  0  0  0  0
    0.7145   -6.1875    0.0000 C   0  0  0  0  0  0  0  0  0  0  0  0
    0.3020   -5.4730    0.0000 C   0  0  0  0  0  0  0  0  0  0  0  0
    0.7145   -4.7586    0.0000 N   0  0  0  0  0  0  0  0  0  0  0  0
    1.5395   -4.7586    0.0000 C   0  0  0  0  0  0  0  0  0  0  0  0
    1.9520   -5.4730    0.0000 C   0  0  0  0  0  0  0  0  0  0  0  0
    2.7770   -5.4730    0.0000 O   0  0  0  0  0  0  0  0  0  0  0  0
    3.1895   -6.1875    0.0000 C   0  0  0  0  0  0  0  0  0  0  0  0
    4.0145   -6.1875    0.0000 O   0  0  0  0  0  0  0  0  0  0  0  0
    2.7770   -6.9020    0.0000 C   0  0  0  0  0  0  0  0  0  0  0  0
    3.1895   -7.6164    0.0000 C   0  0  0  0  0  0  0  0  0  0  0  0
    2.7770   -8.3309    0.0000 C   0  0  0  0  0  0  0  0  0  0  0  0
    1.9520   -8.3309    0.0000 C   0  0  0  0  0  0  0  0  0  0  0  0
    1.5395   -7.6164    0.0000 C   0  0  0  0  0  0  0  0  0  0  0  0
    1.9520   -6.9020    0.0000 C   0  0  0  0  0  0  0  0  0  0  0  0
    0.3020   -4.0441    0.0000 C   0  0  0  0  0  0  0  0  0  0  0  0
   -0.5230   -4.0441    0.0000 C   0  0  0  0  0  0  0  0  0  0  0  0
   -0.9355   -3.3296    0.0000 C   0  0  0  0  0  0  0  0  0  0  0  0
   -0.5230   -2.6151    0.0000 C   0  0  0  0  0  0  0  0  0  0  0  0
    0.3020   -2.6151    0.0000 C   0  0  0  0  0  0  0  0  0  0  0  0
    0.7145   -3.3296    0.0000 C   0  0  0  0  0  0  0  0  0  0  0  0
   -0.9355   -1.9007    0.0000 N   0  0  0  0  0  0  0  0  0  0  0  0
   -1.7605   -1.9007    0.0000 N   0  0  0  0  0  0  0  0  0  0  0  0
   -2.1730   -1.1862    0.0000 C   0  0  0  0  0  0  0  0  0  0  0  0
   -2.9980   -1.1862    0.0000 C   0  0  0  0  0  0  0  0  0  0  0  0
   -3.4105   -0.4717    0.0000 C   0  0  0  0  0  0  0  0  0  0  0  0
   -2.9980    0.2427    0.0000 C   0  0  0  0  0  0  0  0  0  0  0  0
   -2.1730    0.2427    0.0000 C   0  0  0  0  0  0  0  0  0  0  0  0
   -1.7605   -0.4717    0.0000 C   0  0  0  0  0  0  0  0  0  0  0  0
   -3.4105    0.9572    0.0000 N   0  3  0  0  0  0  0  0  0  0  0  0
   -4.2355    0.9572    0.0000 O   0  5  0  0  0  0  0  0  0  0  0  0
   -2.9980    1.6717    0.0000 O   0  0  0  0  0  0  0  0  0  0  0  0
  1  2  3  0  0  0  0
  2  3  1  0  0  0  0
  3  4  1  0  0  0  0
  4  5  1  0  0  0  0
  5  6  1  0  0  0  0
  6  7  1  0  0  0  0
  7  8  1  0  0  0  0
  8  9  1  0  0  0  0
  9 10  2  0  0  0  0
  9 11  1  0  0  0  0
 11 12  1  0  0  0  0
 12 13  2  0  0  0  0
 13 14  1  0  0  0  0
 14 15  2  0  0  0  0
 15 16  1  0  0  0  0
 11 16  2  0  0  0  0
  5 17  1  0  0  0  0
 17 18  1  0  0  0  0
 18 19  2  0  0  0  0
 19 20  1  0  0  0  0
 20 21  2  0  0  0  0
 21 22  1  0  0  0  0
 17 22  2  0  0  0  0
 23 20  1  4  0  0  0
 23 24  2  0  0  0  0
 24 25  1  0  0  0  0
 25 26  1  0  0  0  0
 26 27  2  0  0  0  0
 27 28  1  0  0  0  0
 28 29  2  0  0  0  0
 29 30  1  0  0  0  0
 25 30  2  0  0  0  0
 28 31  1  0  0  0  0
 31 32  1  0  0  0  0
 31 33  2  0  0  0  0
M  CHG  2  31   1  32  -1
M  END
> <ChemID>
101199

> <CAS>
40690-89-9

> <Original_SMILES>
N#CCCN(CCOC(=O)c1ccccc1)c1ccc(cc1)N=Nc1ccc(cc1)[N+]([O-])=O

> <preferred_name>
Propanenitrile, 3-[[2-(benzoyloxy)ethyl][4-[(4-nitrophenyl)azo]phenyl]amino]-

> <dsstox_substance_id>
DTXSID4068246

> <dsstox_compound_id>
DTXCID8039798

> <qc_level>
Public_High

> <Canonical_QSARr>
N#CCCN(CCOC(=O)C1C=CC=CC=1)C1C=CC(=CC=1)N=NC1C=CC(=CC=1)[N+]([O-])=O

> <InChI_Code_QSARr>
InChI=1S/C24H21N5O4/c25-15-4-16-28(17-18-33-24(30)19-5-2-1-3-6-19)22-11-7-20(8-12-22)26-27-21-9-13-23(14-10-21)29(31)32/h1-3,5-14H,4,16-18H2

> <InChI Key_QSARr>
SCLYXZFZPIKFAH-UHFFFAOYSA-N

> <Salt_Solvent>


> <Salt_Solvent_ID>
0

> <MPID>
101167

> <Tr_1_Tst_0>
1

> <Ready_Biodeg>
0.0

$$$$
Row1133
  Mrv171c012251911052D          

 20 21  0  0  0  0            999 V2000
   -1.2155   -2.5183    0.0000 C   0  0  0  0  0  0  0  0  0  0  0  0
   -0.5010   -2.9308    0.0000 C   0  0  0  0  0  0  0  0  0  0  0  0
    0.2134   -2.5183    0.0000 C   0  0  0  0  0  0  0  0  0  0  0  0
    0.9279   -2.9308    0.0000 C   0  0  0  0  0  0  0  0  0  0  0  0
    1.6424   -2.5183    0.0000 C   0  0  0  0  0  0  0  0  0  0  0  0
    2.3569   -2.9308    0.0000 C   0  0  0  0  0  0  0  0  0  0  0  0
    3.0713   -2.5183    0.0000 C   0  0  0  0  0  0  0  0  0  0  0  0
    3.7858   -2.9308    0.0000 C   0  0  0  0  0  0  0  0  0  0  0  0
    4.5003   -2.5183    0.0000 C   0  0  0  0  0  0  0  0  0  0  0  0
    4.5003   -1.6933    0.0000 C   0  0  0  0  0  0  0  0  0  0  0  0
    5.2147   -1.2808    0.0000 C   0  0  0  0  0  0  0  0  0  0  0  0
    5.9292   -1.6933    0.0000 C   0  0  0  0  0  0  0  0  0  0  0  0
    6.6437   -1.2808    0.0000 C   0  0  0  0  0  0  0  0  0  0  0  0
    6.6437   -0.4558    0.0000 C   0  0  0  0  0  0  0  0  0  0  0  0
    7.3582   -0.0433    0.0000 C   0  0  0  0  0  0  0  0  0  0  0  0
    8.0726    0.3692    0.0000 N   0  0  0  0  0  0  0  0  0  0  0  0
    5.9292   -0.0433    0.0000 C   0  0  0  0  0  0  0  0  0  0  0  0
    5.2147   -0.4558    0.0000 C   0  0  0  0  0  0  0  0  0  0  0  0
    3.7858   -1.2808    0.0000 C   0  0  0  0  0  0  0  0  0  0  0  0
    3.0713   -1.6933    0.0000 C   0  0  0  0  0  0  0  0  0  0  0  0
  1  2  1  0  0  0  0
  2  3  1  0  0  0  0
  3  4  1  0  0  0  0
  4  5  1  0  0  0  0
  5  6  1  0  0  0  0
  6  7  1  0  0  0  0
  8  7  1  0  0  0  0
  9  8  2  0  0  0  0
 10  9  1  0  0  0  0
 10 11  1  0  0  0  0
 12 11  1  0  0  0  0
 13 12  2  0  0  0  0
 14 13  1  0  0  0  0
 14 15  1  0  0  0  0
 15 16  3  0  0  0  0
 17 14  2  0  0  0  0
 18 17  1  0  0  0  0
 11 18  2  0  0  0  0
 19 10  2  0  0  0  0
 20 19  1  0  0  0  0
  7 20  2  0  0  0  0
M  END
> <ChemID>
101200

> <CAS>
41122-70-7

> <Original_SMILES>
CCCCCCc1ccc(cc1)-c1ccc(cc1)C#N

> <preferred_name>
4-Hexyl-4'-cyanobiphenyl

> <dsstox_substance_id>
DTXSID4025404

> <dsstox_compound_id>
DTXCID905404

> <qc_level>
DSSTox_Low

> <Canonical_QSARr>
CCCCCCC1C=CC(=CC=1)C1C=CC(=CC=1)C#N

> <InChI_Code_QSARr>
InChI=1S/C19H21N/c1-2-3-4-5-6-16-7-11-18(12-8-16)19-13-9-17(15-20)10-14-19/h7-14H,2-6H2,1H3

> <InChI Key_QSARr>
VADSDVGLFDVIMG-UHFFFAOYSA-N

> <Salt_Solvent>


> <Salt_Solvent_ID>
0

> <MPID>
101168

> <Tr_1_Tst_0>
0

> <Ready_Biodeg>
0.0

$$$$
Row1134
  Mrv171c012251911052D          

 22 23  0  0  0  0            999 V2000
   -1.2645   -1.4789    0.0000 C   0  0  0  0  0  0  0  0  0  0  0  0
   -1.6770   -0.7644    0.0000 N   0  0  0  0  0  0  0  0  0  0  0  0
   -2.5020   -0.7644    0.0000 C   0  0  0  0  0  0  0  0  0  0  0  0
   -2.9145   -0.0500    0.0000 C   0  0  0  0  0  0  0  0  0  0  0  0
   -3.7395   -0.0500    0.0000 C   0  0  0  0  0  0  0  0  0  0  0  0
   -4.1520   -0.7644    0.0000 C   0  0  0  0  0  0  0  0  0  0  0  0
   -3.7395   -1.4789    0.0000 C   0  0  0  0  0  0  0  0  0  0  0  0
   -4.1520   -2.1934    0.0000 N   0  0  0  0  0  0  0  0  0  0  0  0
   -4.9770   -2.1934    0.0000 C   0  0  0  0  0  0  0  0  0  0  0  0
   -5.3895   -2.9079    0.0000 C   0  0  0  0  0  0  0  0  0  0  0  0
   -6.2145   -2.9079    0.0000 O   0  0  0  0  0  0  0  0  0  0  0  0
   -3.7395   -2.9079    0.0000 C   0  0  0  0  0  0  0  0  0  0  0  0
   -2.9145   -2.9079    0.0000 C   0  0  0  0  0  0  0  0  0  0  0  0
   -2.5020   -3.6223    0.0000 O   0  0  0  0  0  0  0  0  0  0  0  0
   -2.9145   -1.4789    0.0000 C   0  0  0  0  0  0  0  0  0  0  0  0
   -1.6770   -2.1934    0.0000 O   0  0  0  0  0  0  0  0  0  0  0  0
   -0.4395   -1.4789    0.0000 C   0  0  0  0  0  0  0  0  0  0  0  0
   -0.0270   -2.1934    0.0000 C   0  0  0  0  0  0  0  0  0  0  0  0
    0.7980   -2.1934    0.0000 C   0  0  0  0  0  0  0  0  0  0  0  0
    1.2105   -1.4789    0.0000 C   0  0  0  0  0  0  0  0  0  0  0  0
    0.7980   -0.7644    0.0000 C   0  0  0  0  0  0  0  0  0  0  0  0
   -0.0270   -0.7644    0.0000 C   0  0  0  0  0  0  0  0  0  0  0  0
  1  2  1  0  0  0  0
  2  3  1  0  0  0  0
  4  3  1  0  0  0  0
  5  4  2  0  0  0  0
  6  5  1  0  0  0  0
  7  6  2  0  0  0  0
  7  8  1  0  0  0  0
  8  9  1  0  0  0  0
  9 10  1  0  0  0  0
 10 11  1  0  0  0  0
  8 12  1  0  0  0  0
 12 13  1  0  0  0  0
 13 14  1  0  0  0  0
 15  7  1  0  0  0  0
  3 15  2  0  0  0  0
  1 16  2  0  0  0  0
  1 17  1  0  0  0  0
 18 17  1  0  0  0  0
 19 18  2  0  0  0  0
 20 19  1  0  0  0  0
 21 20  2  0  0  0  0
 22 21  1  0  0  0  0
 17 22  2  0  0  0  0
M  END
> <ChemID>
101201

> <CAS>
43051-46-3

> <Original_SMILES>
OCCN(CCO)c1cc(ccc1)NC(=O)c1ccccc1

> <preferred_name>
Benzamide, N-[3-[bis(2-hydroxyethyl)amino]phenyl]-

> <dsstox_substance_id>
DTXSID5068449

> <dsstox_compound_id>
DTXCID9040217

> <qc_level>
Public_High

> <Canonical_QSARr>
OCCN(CCO)C1C=C(C=CC=1)NC(=O)C1C=CC=CC=1

> <InChI_Code_QSARr>
InChI=1S/C17H20N2O3/c20-11-9-19(10-12-21)16-8-4-7-15(13-16)18-17(22)14-5-2-1-3-6-14/h1-8,13,20-21H,9-12H2,(H,18,22)

> <InChI Key_QSARr>
OYTLLQHYKCEMGB-UHFFFAOYSA-N

> <Salt_Solvent>


> <Salt_Solvent_ID>
0

> <MPID>
101169

> <Tr_1_Tst_0>
1

> <Ready_Biodeg>
0.0

$$$$
Row1135
  Mrv171c012251911052D          

 25 25  0  0  0  0            999 V2000
   -6.2507   -0.9100    0.0000 O   0  0  0  0  0  0  0  0  0  0  0  0
   -5.4438   -0.7385    0.0000 C   0  0  0  0  0  0  0  0  0  0  0  0
   -4.8307   -1.2905    0.0000 O   0  0  0  0  0  0  0  0  0  0  0  0
   -5.3575    0.0820    0.0000 C   0  0  0  0  0  0  0  0  0  0  0  0
   -4.6431    0.4945    0.0000 C   0  0  0  0  0  0  0  0  0  0  0  0
   -3.9286    0.0820    0.0000 C   0  0  0  0  0  0  0  0  0  0  0  0
   -3.2141    0.4945    0.0000 C   0  0  0  0  0  0  0  0  0  0  0  0
   -2.4996    0.0820    0.0000 C   0  0  0  0  0  0  0  0  0  0  0  0
   -1.7852    0.4945    0.0000 C   0  0  0  0  0  0  0  0  0  0  0  0
   -1.0707    0.0820    0.0000 C   0  0  0  0  0  0  0  0  0  0  0  0
   -0.3562    0.4945    0.0000 C   0  0  0  0  0  0  0  0  0  0  0  0
    0.3582    0.0820    0.0000 C   0  0  0  0  0  0  0  0  0  0  0  0
    1.0727    0.4945    0.0000 C   0  0  0  0  0  0  0  0  0  0  0  0
    1.7872    0.0820    0.0000 C   0  0  0  0  0  0  0  0  0  0  0  0
    2.5017    0.4945    0.0000 C   0  0  0  0  0  0  0  0  0  0  0  0
    3.2161    0.0820    0.0000 C   0  0  0  0  0  0  0  0  0  0  0  0
    3.9306    0.4945    0.0000 C   0  0  0  0  0  0  0  0  0  0  0  0
    4.6451    0.0820    0.0000 C   0  0  0  0  0  0  0  0  0  0  0  0
    5.3595    0.4945    0.0000 C   0  0  0  0  0  0  0  0  0  0  0  0
    6.0740    0.0820    0.0000 C   0  0  0  0  0  0  0  0  0  0  0  0
    6.7885    0.4945    0.0000 C   0  0  0  0  0  0  0  0  0  0  0  0
    7.5029    0.0820    0.0000 C   0  0  0  0  0  0  0  0  0  0  0  0
   -6.1112    0.4176    0.0000 C   0  0  0  0  0  0  0  0  0  0  0  0
   -6.6632   -0.1955    0.0000 C   0  0  0  0  0  0  0  0  0  0  0  0
   -7.4837   -0.1093    0.0000 O   0  0  0  0  0  0  0  0  0  0  0  0
  2  1  1  0  0  0  0
  2  3  2  0  0  0  0
  4  2  1  0  0  0  0
  4  5  1  0  0  0  0
  5  6  1  0  0  0  0
  6  7  1  0  0  0  0
  7  8  1  0  0  0  0
  8  9  1  0  0  0  0
  9 10  1  0  0  0  0
 10 11  1  0  0  0  0
 11 12  1  0  0  0  0
 12 13  1  0  0  0  0
 13 14  1  0  0  0  0
 14 15  1  0  0  0  0
 15 16  1  0  0  0  0
 16 17  1  0  0  0  0
 17 18  1  0  0  0  0
 18 19  1  0  0  0  0
 19 20  1  0  0  0  0
 20 21  1  0  0  0  0
 21 22  1  0  0  0  0
 23  4  1  0  0  0  0
 24 23  1  0  0  0  0
  1 24  1  0  0  0  0
 24 25  2  0  0  0  0
M  END
> <ChemID>
101202

> <CAS>
47458-32-2

> <Original_SMILES>
CCCCCCCCCCCCCCCCCCC1CC(=O)OC1=O

> <preferred_name>
Octadecyl succinic anhydride

> <dsstox_substance_id>
DTXSID00858785

> <dsstox_compound_id>
DTXCID80809533

> <qc_level>
DSSTox_High

> <Canonical_QSARr>
CCCCCCCCCCCCCCCCCCC1CC(=O)OC1=O

> <InChI_Code_QSARr>
InChI=1S/C22H40O3/c1-2-3-4-5-6-7-8-9-10-11-12-13-14-15-16-17-18-20-19-21(23)25-22(20)24/h20H,2-19H2,1H3

> <InChI Key_QSARr>
ZJFCVUTYZHUNSW-UHFFFAOYSA-N

> <Salt_Solvent>


> <Salt_Solvent_ID>
0

> <MPID>
101170

> <Tr_1_Tst_0>
1

> <Ready_Biodeg>
0.0

$$$$
Row1136
  Mrv171c012251911052D          

 22 23  0  0  0  0            999 V2000
    2.6636   -0.9731    0.0000 Cl  0  0  0  0  0  0  0  0  0  0  0  0
    1.9491   -1.3856    0.0000 C   0  0  0  0  0  0  0  0  0  0  0  0
    1.2346   -0.9731    0.0000 C   0  0  0  0  0  0  0  0  0  0  0  0
    0.5201   -1.3856    0.0000 C   0  0  0  0  0  0  0  0  0  0  0  0
   -0.1943   -0.9731    0.0000 Cl  0  0  0  0  0  0  0  0  0  0  0  0
    0.5201   -2.2106    0.0000 C   0  0  0  0  0  0  0  0  0  0  0  0
    1.2346   -2.6231    0.0000 C   0  0  0  0  0  0  0  0  0  0  0  0
    1.9491   -2.2106    0.0000 C   0  0  0  0  0  0  0  0  0  0  0  0
    2.6636   -2.6231    0.0000 O   0  0  0  0  0  0  0  0  0  0  0  0
    3.3780   -2.2106    0.0000 C   0  0  0  0  0  0  0  0  0  0  0  0
    4.0925   -2.6231    0.0000 C   0  0  0  0  0  0  0  0  0  0  0  0
    4.8070   -2.2106    0.0000 C   0  0  0  0  0  0  0  0  0  0  0  0
    4.8070   -1.3856    0.0000 C   0  0  0  0  0  0  0  0  0  0  0  0
    5.5214   -0.9731    0.0000 O   0  0  0  0  0  0  0  0  0  0  0  0
    6.2359   -1.3856    0.0000 C   0  0  0  0  0  0  0  0  0  0  0  0
    6.2359   -2.2106    0.0000 C   0  0  0  0  0  0  0  0  0  0  0  0
    6.9504   -0.9731    0.0000 C   0  0  0  0  0  0  0  0  0  0  0  0
    7.6648   -1.3856    0.0000 O   0  0  0  0  0  0  0  0  0  0  0  0
    8.3793   -0.9731    0.0000 C   0  0  0  0  0  0  0  0  0  0  0  0
    6.9504   -0.1481    0.0000 O   0  0  0  0  0  0  0  0  0  0  0  0
    4.0925   -0.9731    0.0000 C   0  0  0  0  0  0  0  0  0  0  0  0
    3.3780   -1.3856    0.0000 C   0  0  0  0  0  0  0  0  0  0  0  0
  1  2  1  0  0  0  0
  3  2  2  0  0  0  0
  4  3  1  0  0  0  0
  4  5  1  0  0  0  0
  6  4  2  0  0  0  0
  7  6  1  0  0  0  0
  8  7  2  0  0  0  0
  2  8  1  0  0  0  0
  8  9  1  0  0  0  0
  9 10  1  0  0  0  0
 11 10  2  0  0  0  0
 12 11  1  0  0  0  0
 13 12  2  0  0  0  0
 13 14  1  0  0  0  0
 14 15  1  0  0  0  0
 15 16  1  0  0  0  0
 15 17  1  0  0  0  0
 17 18  1  0  0  0  0
 18 19  1  0  0  0  0
 17 20  2  0  0  0  0
 21 13  1  0  0  0  0
 22 21  2  0  0  0  0
 10 22  1  0  0  0  0
M  END
> <ChemID>
101203

> <CAS>
51338-27-3

> <Original_SMILES>
COC(=O)C(C)Oc1ccc(cc1)Oc1ccc(Cl)cc1Cl

> <preferred_name>
Diclofop-methyl

> <dsstox_substance_id>
DTXSID0032605

> <dsstox_compound_id>
DTXCID8012605

> <qc_level>
DSSTox_Low

> <Canonical_QSARr>
COC(=O)C(C)OC1C=CC(=CC=1)OC1=CC=C(Cl)C=C1Cl

> <InChI_Code_QSARr>
InChI=1S/C16H14Cl2O4/c1-10(16(19)20-2)21-12-4-6-13(7-5-12)22-15-8-3-11(17)9-14(15)18/h3-10H,1-2H3

> <InChI Key_QSARr>
BACHBFVBHLGWSL-UHFFFAOYSA-N

> <Salt_Solvent>


> <Salt_Solvent_ID>
0

> <MPID>
101171

> <Tr_1_Tst_0>
1

> <Ready_Biodeg>
1.0

$$$$
Row1137
  Mrv171c012251911052D          

 26 28  0  0  0  0            999 V2000
   10.5121   -1.7107    0.0000 C   0  0  0  0  0  0  0  0  0  0  0  0
    9.8801   -1.1804    0.0000 C   0  0  0  0  0  0  0  0  0  0  0  0
   11.1441   -1.1804    0.0000 C   0  0  0  0  0  0  0  0  0  0  0  0
   10.0996   -2.4252    0.0000 C   0  0  0  0  0  0  0  0  0  0  0  0
    9.3852   -2.8377    0.0000 C   0  0  0  0  0  0  0  0  0  0  0  0
    9.3852   -3.6627    0.0000 O   0  0  0  0  0  0  0  0  0  0  0  0
    8.6707   -2.4252    0.0000 O   0  0  0  0  0  0  0  0  0  0  0  0
    7.9562   -2.8377    0.0000 C   0  0  0  0  0  0  0  0  0  0  0  0
    7.2417   -2.4252    0.0000 C   0  0  0  0  0  0  0  0  0  0  0  0
    7.2417   -1.6002    0.0000 C   0  0  0  0  0  0  0  0  0  0  0  0
    6.5273   -1.1877    0.0000 C   0  0  0  0  0  0  0  0  0  0  0  0
    5.8128   -1.6002    0.0000 C   0  0  0  0  0  0  0  0  0  0  0  0
    5.8128   -2.4252    0.0000 C   0  0  0  0  0  0  0  0  0  0  0  0
    5.0983   -2.8377    0.0000 O   0  0  0  0  0  0  0  0  0  0  0  0
    4.3839   -2.4252    0.0000 C   0  0  0  0  0  0  0  0  0  0  0  0
    4.3839   -1.6002    0.0000 C   0  0  0  0  0  0  0  0  0  0  0  0
    3.6694   -1.1877    0.0000 C   0  0  0  0  0  0  0  0  0  0  0  0
    2.9549   -1.6002    0.0000 C   0  0  0  0  0  0  0  0  0  0  0  0
    2.9549   -2.4252    0.0000 C   0  0  0  0  0  0  0  0  0  0  0  0
    3.6694   -2.8377    0.0000 C   0  0  0  0  0  0  0  0  0  0  0  0
    6.5273   -2.8377    0.0000 C   0  0  0  0  0  0  0  0  0  0  0  0
   10.9246   -2.4252    0.0000 C   0  0  0  0  0  0  0  0  0  0  0  0
   11.6391   -2.8377    0.0000 C   0  0  0  0  0  0  0  0  0  0  0  0
   11.6391   -3.6627    0.0000 C   0  0  0  0  0  0  0  0  0  0  0  0
   12.3536   -4.0752    0.0000 Cl  0  0  0  0  0  0  0  0  0  0  0  0
   10.9246   -4.0752    0.0000 Cl  0  0  0  0  0  0  0  0  0  0  0  0
  1  2  1  0  0  0  0
  1  3  1  0  0  0  0
  4  1  1  0  0  0  0
  4  5  1  0  0  0  0
  5  6  2  0  0  0  0
  5  7  1  0  0  0  0
  7  8  1  0  0  0  0
  8  9  1  0  0  0  0
 10  9  2  0  0  0  0
 11 10  1  0  0  0  0
 12 11  2  0  0  0  0
 13 12  1  0  0  0  0
 13 14  1  0  0  0  0
 14 15  1  0  0  0  0
 16 15  1  0  0  0  0
 17 16  2  0  0  0  0
 18 17  1  0  0  0  0
 19 18  2  0  0  0  0
 20 19  1  0  0  0  0
 15 20  2  0  0  0  0
 21 13  2  0  0  0  0
  9 21  1  0  0  0  0
 22  4  1  0  0  0  0
  1 22  1  0  0  0  0
 22 23  1  0  0  0  0
 23 24  2  0  0  0  0
 24 25  1  0  0  0  0
 24 26  1  0  0  0  0
M  END
> <ChemID>
101204

> <CAS>
51877-74-8

> <Original_SMILES>
CC1(C)[C@@H]([C@H]1C=C(Cl)Cl)C(=O)OCc1cccc(c1)Oc1ccccc1

> <preferred_name>
(+)-trans-Permethrin

> <dsstox_substance_id>
DTXSID8058116

> <dsstox_compound_id>
DTXCID2017611

> <qc_level>
DSSTox_High

> <Canonical_QSARr>
CC1(C)C(C1C=C(Cl)Cl)C(=O)OCC1C=C(C=CC=1)OC1C=CC=CC=1

> <InChI_Code_QSARr>
InChI=1S/C21H20Cl2O3/c1-21(2)17(12-18(22)23)19(21)20(24)25-13-14-7-6-10-16(11-14)26-15-8-4-3-5-9-15/h3-12,17,19H,13H2,1-2H3

> <InChI Key_QSARr>
RLLPVAHGXHCWKJ-UHFFFAOYSA-N

> <Salt_Solvent>


> <Salt_Solvent_ID>
0

> <MPID>
101172

> <Tr_1_Tst_0>
0

> <Ready_Biodeg>
0.0

$$$$
Row1138
  Mrv171c012251911052D          

 15 15  0  0  0  0            999 V2000
    3.4041   -2.0169    0.0000 C   0  0  0  0  0  0  0  0  0  0  0  0
    2.5836   -2.1032    0.0000 N   0  0  0  0  0  0  0  0  0  0  0  0
    2.0987   -1.4357    0.0000 C   0  0  0  0  0  0  0  0  0  0  0  0
    2.3536   -0.6511    0.0000 C   0  0  0  0  0  0  0  0  0  0  0  0
    1.6862   -0.1662    0.0000 C   0  0  0  0  0  0  0  0  0  0  0  0
    1.6862    0.6588    0.0000 C   0  0  0  0  0  0  0  0  0  0  0  0
    1.6862    1.4838    0.0000 C   0  0  0  0  0  0  0  0  0  0  0  0
    0.8612    0.6588    0.0000 C   0  0  0  0  0  0  0  0  0  0  0  0
    2.5112    0.6588    0.0000 C   0  0  0  0  0  0  0  0  0  0  0  0
    1.0187   -0.6511    0.0000 O   0  0  0  0  0  0  0  0  0  0  0  0
    1.2737   -1.4357    0.0000 N   0  0  0  0  0  0  0  0  0  0  0  0
    3.8890   -2.6844    0.0000 N   0  0  0  0  0  0  0  0  0  0  0  0
    4.7095   -2.5981    0.0000 C   0  0  0  0  0  0  0  0  0  0  0  0
    3.5534   -3.4381    0.0000 C   0  0  0  0  0  0  0  0  0  0  0  0
    3.7396   -1.2633    0.0000 O   0  0  0  0  0  0  0  0  0  0  0  0
  1  2  1  0  0  0  0
  2  3  1  0  0  0  0
  4  3  1  0  0  0  0
  5  4  2  0  0  0  0
  5  6  1  0  0  0  0
  6  7  1  0  0  0  0
  6  8  1  0  0  0  0
  6  9  1  0  0  0  0
 10  5  1  0  0  0  0
 11 10  1  0  0  0  0
  3 11  2  0  0  0  0
  1 12  1  0  0  0  0
 12 13  1  0  0  0  0
 12 14  1  0  0  0  0
  1 15  2  0  0  0  0
M  END
> <ChemID>
101205

> <CAS>
55861-78-4

> <Original_SMILES>
CN(C)C(=O)Nc1cc(o[n]1)C(C)(C)C

> <preferred_name>
Isouron

> <dsstox_substance_id>
DTXSID1042079

> <dsstox_compound_id>
DTXCID9022079

> <qc_level>
DSSTox_Low

> <Canonical_QSARr>
CN(C)C(=O)NC1C=C(ON=1)C(C)(C)C

> <InChI_Code_QSARr>
InChI=1S/C10H17N3O2/c1-10(2,3)7-6-8(12-15-7)11-9(14)13(4)5/h6H,1-5H3,(H,11,12,14)

> <InChI Key_QSARr>
JLLJHQLUZAKJFH-UHFFFAOYSA-N

> <Salt_Solvent>


> <Salt_Solvent_ID>
0

> <MPID>
101173

> <Tr_1_Tst_0>
1

> <Ready_Biodeg>
1.0

$$$$
Row1139
  Mrv171c012251911052D          

 12 12  0  0  0  0            999 V2000
    2.5029   -1.8651    0.0000 C   0  0  0  0  0  0  0  0  0  0  0  0
    2.5029   -1.0401    0.0000 C   0  0  0  0  0  0  0  0  0  0  0  0
    1.7884   -0.6276    0.0000 C   0  0  0  0  0  0  0  0  0  0  0  0
    1.7884    0.1974    0.0000 Cl  0  0  0  0  0  0  0  0  0  0  0  0
    1.0739   -1.0401    0.0000 C   0  0  0  0  0  0  0  0  0  0  0  0
    0.3595   -0.6276    0.0000 Cl  0  0  0  0  0  0  0  0  0  0  0  0
    1.0739   -1.8651    0.0000 C   0  0  0  0  0  0  0  0  0  0  0  0
    0.3595   -2.2776    0.0000 Cl  0  0  0  0  0  0  0  0  0  0  0  0
    1.7884   -2.2776    0.0000 C   0  0  0  0  0  0  0  0  0  0  0  0
    1.7884   -3.1026    0.0000 O   0  0  0  0  0  0  0  0  0  0  0  0
    2.5029   -3.5151    0.0000 C   0  0  0  0  0  0  0  0  0  0  0  0
    3.2174   -2.2776    0.0000 O   0  0  0  0  0  0  0  0  0  0  0  0
  2  1  2  0  0  0  0
  3  2  1  0  0  0  0
  3  4  1  0  0  0  0
  5  3  2  0  0  0  0
  5  6  1  0  0  0  0
  7  5  1  0  0  0  0
  7  8  1  0  0  0  0
  9  7  2  0  0  0  0
  1  9  1  0  0  0  0
  9 10  1  0  0  0  0
 10 11  1  0  0  0  0
  1 12  1  0  0  0  0
M  END
> <ChemID>
101206

> <CAS>
57057-83-7

> <Original_SMILES>
COc1c(O)cc(Cl)c(Cl)c1Cl

> <preferred_name>
3,4,5-Trichloro-2-methoxyphenol

> <dsstox_substance_id>
DTXSID7052232

> <dsstox_compound_id>
DTXCID2030803

> <qc_level>
DSSTox_High

> <Canonical_QSARr>
COC1C(O)=CC(Cl)=C(Cl)C=1Cl

> <InChI_Code_QSARr>
InChI=1S/C7H5Cl3O2/c1-12-7-4(11)2-3(8)5(9)6(7)10/h2,11H,1H3

> <InChI Key_QSARr>
RKEHLKXRUVUBJN-UHFFFAOYSA-N

> <Salt_Solvent>


> <Salt_Solvent_ID>
0

> <MPID>
101174

> <Tr_1_Tst_0>
1

> <Ready_Biodeg>
0.0

$$$$
Row1140
  Mrv171c012251911052D          

 20 20  0  0  0  0            999 V2000
    2.1808   -2.1587    0.0000 N   0  0  0  0  0  0  0  0  0  0  0  0
    1.4663   -1.7462    0.0000 C   0  0  0  0  0  0  0  0  0  0  0  0
    0.7518   -2.1587    0.0000 C   0  0  0  0  0  0  0  0  0  0  0  0
    1.4663   -0.9212    0.0000 C   0  0  0  0  0  0  0  0  0  0  0  0
    0.7518   -0.5087    0.0000 O   0  0  0  0  0  0  0  0  0  0  0  0
    0.7518    0.3163    0.0000 C   0  0  0  0  0  0  0  0  0  0  0  0
    2.1808   -0.5087    0.0000 O   0  0  0  0  0  0  0  0  0  0  0  0
    2.8952   -1.7462    0.0000 C   0  0  0  0  0  0  0  0  0  0  0  0
    2.8952   -0.9212    0.0000 C   0  0  0  0  0  0  0  0  0  0  0  0
    3.6097   -0.5087    0.0000 O   0  0  0  0  0  0  0  0  0  0  0  0
    4.3242   -0.9212    0.0000 C   0  0  0  0  0  0  0  0  0  0  0  0
    3.6097   -2.1587    0.0000 O   0  0  0  0  0  0  0  0  0  0  0  0
    2.1808   -2.9837    0.0000 C   0  0  0  0  0  0  0  0  0  0  0  0
    1.4663   -3.3962    0.0000 C   0  0  0  0  0  0  0  0  0  0  0  0
    0.7518   -2.9837    0.0000 C   0  0  0  0  0  0  0  0  0  0  0  0
    1.4663   -4.2212    0.0000 C   0  0  0  0  0  0  0  0  0  0  0  0
    2.1808   -4.6337    0.0000 C   0  0  0  0  0  0  0  0  0  0  0  0
    2.8952   -4.2212    0.0000 C   0  0  0  0  0  0  0  0  0  0  0  0
    2.8952   -3.3962    0.0000 C   0  0  0  0  0  0  0  0  0  0  0  0
    3.6097   -2.9837    0.0000 C   0  0  0  0  0  0  0  0  0  0  0  0
  1  2  1  0  0  0  0
  2  3  1  0  0  0  0
  2  4  1  0  0  0  0
  4  5  1  0  0  0  0
  5  6  1  0  0  0  0
  4  7  2  0  0  0  0
  1  8  1  0  0  0  0
  8  9  1  0  0  0  0
  9 10  1  0  0  0  0
 10 11  1  0  0  0  0
  8 12  2  0  0  0  0
  1 13  1  0  0  0  0
 14 13  1  0  0  0  0
 14 15  1  0  0  0  0
 16 14  2  0  0  0  0
 17 16  1  0  0  0  0
 18 17  2  0  0  0  0
 19 18  1  0  0  0  0
 13 19  2  0  0  0  0
 19 20  1  0  0  0  0
M  END
> <ChemID>
101207

> <CAS>
57837-19-1

> <Original_SMILES>
COCC(=O)N(C(C)C(=O)OC)c1c(C)cccc1C

> <preferred_name>
Metalaxyl

> <dsstox_substance_id>
DTXSID6024175

> <dsstox_compound_id>
DTXCID704175

> <qc_level>
DSSTox_Low

> <Canonical_QSARr>
CC1C=CC=C(C)C=1N(C(C)C(=O)OC)C(=O)COC

> <InChI_Code_QSARr>
InChI=1S/C15H21NO4/c1-10-7-6-8-11(2)14(10)16(13(17)9-19-4)12(3)15(18)20-5/h6-8,12H,9H2,1-5H3

> <InChI Key_QSARr>
ZQEIXNIJLIKNTD-UHFFFAOYSA-N

> <Salt_Solvent>


> <Salt_Solvent_ID>
0

> <MPID>
101175

> <Tr_1_Tst_0>
1

> <Ready_Biodeg>
0.0

$$$$
Row1141
  Mrv171c012251911052D          

 26 29  0  0  0  0            999 V2000
   -0.7145    2.0625    0.0000 O   0  0  0  0  0  0  0  0  0  0  0  0
   -0.7145    1.2375    0.0000 C   0  0  0  0  0  0  0  0  0  0  0  0
   -0.0000    0.8250    0.0000 C   0  0  0  0  0  0  0  0  0  0  0  0
   -0.0000   -0.0000    0.0000 C   0  0  0  0  0  0  0  0  0  0  0  0
    0.7145   -0.4125    0.0000 C   0  0  0  0  0  0  0  0  0  0  0  0
    1.4289   -0.0000    0.0000 C   0  0  0  0  0  0  0  0  0  0  0  0
    1.4289    0.8250    0.0000 C   0  0  0  0  0  0  0  0  0  0  0  0
    0.7145    1.2375    0.0000 C   0  0  0  0  0  0  0  0  0  0  0  0
    0.7145    2.0625    0.0000 O   0  0  0  0  0  0  0  0  0  0  0  0
    2.1434   -0.4125    0.0000 O   0  0  0  0  0  0  0  0  0  0  0  0
    2.8579   -0.0000    0.0000 C   0  0  0  0  0  0  0  0  0  0  0  0
    3.5723   -0.4125    0.0000 C   0  0  0  0  0  0  0  0  0  0  0  0
    4.2868   -0.0000    0.0000 C   0  0  0  0  0  0  0  0  0  0  0  0
    4.2868    0.8250    0.0000 C   0  0  0  0  0  0  0  0  0  0  0  0
    5.0013    1.2375    0.0000 Br  0  0  0  0  0  0  0  0  0  0  0  0
    3.5723    1.2375    0.0000 C   0  0  0  0  0  0  0  0  0  0  0  0
    2.8579    0.8250    0.0000 C   0  0  0  0  0  0  0  0  0  0  0  0
    0.7145   -1.2375    0.0000 N   0  0  0  0  0  0  0  0  0  0  0  0
   -0.7145   -0.4125    0.0000 C   0  0  0  0  0  0  0  0  0  0  0  0
   -0.7145   -1.2375    0.0000 O   0  0  0  0  0  0  0  0  0  0  0  0
   -1.4290   -0.0000    0.0000 C   0  0  0  0  0  0  0  0  0  0  0  0
   -2.1434   -0.4125    0.0000 C   0  0  0  0  0  0  0  0  0  0  0  0
   -2.8579   -0.0000    0.0000 C   0  0  0  0  0  0  0  0  0  0  0  0
   -2.8579    0.8250    0.0000 C   0  0  0  0  0  0  0  0  0  0  0  0
   -2.1434    1.2375    0.0000 C   0  0  0  0  0  0  0  0  0  0  0  0
   -1.4290    0.8250    0.0000 C   0  0  0  0  0  0  0  0  0  0  0  0
  1  2  2  0  0  0  0
  3  2  1  0  0  0  0
  3  4  1  0  0  0  0
  4  5  2  0  0  0  0
  5  6  1  0  0  0  0
  6  7  2  0  0  0  0
  7  8  1  0  0  0  0
  8  3  2  0  0  0  0
  8  9  1  0  0  0  0
  6 10  1  0  0  0  0
 10 11  1  0  0  0  0
 12 11  1  0  0  0  0
 13 12  2  0  0  0  0
 14 13  1  0  0  0  0
 14 15  1  0  0  0  0
 16 14  2  0  0  0  0
 17 16  1  0  0  0  0
 11 17  2  0  0  0  0
  5 18  1  0  0  0  0
 19  4  1  0  0  0  0
 19 20  2  0  0  0  0
 21 19  1  0  0  0  0
 21 22  1  0  0  0  0
 22 23  2  0  0  0  0
 23 24  1  0  0  0  0
 24 25  2  0  0  0  0
 25 26  1  0  0  0  0
  2 26  1  0  0  0  0
 26 21  2  0  0  0  0
M  END
> <ChemID>
101208

> <CAS>
59722-76-8

> <Original_SMILES>
Nc1c2c(c(O)cc1Oc1ccc(Br)cc1)C(=O)c1ccccc1C2=O

> <preferred_name>
9,10-Anthracenedione, 1-amino-2-(4-bromophenoxy)-4-hydroxy-

> <dsstox_substance_id>
DTXSID8069351

> <dsstox_compound_id>
DTXCID9042677

> <qc_level>
Public_High

> <Canonical_QSARr>
NC1=C2C(=C(O)C=C1OC1C=CC(Br)=CC=1)C(=O)C1C=CC=CC=1C2=O

> <InChI_Code_QSARr>
InChI=1S/C20H12BrNO4/c21-10-5-7-11(8-6-10)26-15-9-14(23)16-17(18(15)22)20(25)13-4-2-1-3-12(13)19(16)24/h1-9,23H,22H2

> <InChI Key_QSARr>
NXLZYWCPIVGZKC-UHFFFAOYSA-N

> <Salt_Solvent>


> <Salt_Solvent_ID>
0

> <MPID>
101176

> <Tr_1_Tst_0>
0

> <Ready_Biodeg>
0.0

$$$$
Row1142
  Mrv171c012251911052D          

 24 26  0  0  0  0            999 V2000
    4.7355   -2.7890    0.0000 N   0  0  0  0  0  0  0  0  0  0  0  0
    5.4500   -3.2015    0.0000 C   0  0  0  0  0  0  0  0  0  0  0  0
    4.7355   -1.9640    0.0000 C   0  0  0  0  0  0  0  0  0  0  0  0
    4.0211   -1.5515    0.0000 C   0  0  0  0  0  0  0  0  0  0  0  0
    4.0211   -0.7265    0.0000 C   0  0  0  0  0  0  0  0  0  0  0  0
    4.7355   -0.3140    0.0000 C   0  0  0  0  0  0  0  0  0  0  0  0
    4.7355    0.5110    0.0000 C   0  0  0  0  0  0  0  0  0  0  0  0
    4.0211    0.9235    0.0000 C   0  0  0  0  0  0  0  0  0  0  0  0
    3.3066    0.5110    0.0000 C   0  0  0  0  0  0  0  0  0  0  0  0
    3.3066   -0.3140    0.0000 C   0  0  0  0  0  0  0  0  0  0  0  0
    3.3066   -1.9640    0.0000 C   0  0  0  0  0  0  0  0  0  0  0  0
    2.5921   -1.5515    0.0000 O   0  0  0  0  0  0  0  0  0  0  0  0
    3.3066   -2.7890    0.0000 C   0  0  0  0  0  0  0  0  0  0  0  0
    2.5921   -3.2015    0.0000 C   0  0  0  0  0  0  0  0  0  0  0  0
    1.8777   -2.7890    0.0000 C   0  0  0  0  0  0  0  0  0  0  0  0
    1.1632   -3.2015    0.0000 C   0  0  0  0  0  0  0  0  0  0  0  0
    1.1632   -4.0265    0.0000 C   0  0  0  0  0  0  0  0  0  0  0  0
    1.8777   -4.4390    0.0000 C   0  0  0  0  0  0  0  0  0  0  0  0
    1.8777   -5.2640    0.0000 C   0  0  0  0  0  0  0  0  0  0  0  0
    1.8777   -6.0890    0.0000 F   0  0  0  0  0  0  0  0  0  0  0  0
    1.0527   -5.2640    0.0000 F   0  0  0  0  0  0  0  0  0  0  0  0
    2.7027   -5.2640    0.0000 F   0  0  0  0  0  0  0  0  0  0  0  0
    2.5921   -4.0265    0.0000 C   0  0  0  0  0  0  0  0  0  0  0  0
    4.0211   -3.2015    0.0000 C   0  0  0  0  0  0  0  0  0  0  0  0
  1  2  1  0  0  0  0
  3  1  1  0  0  0  0
  4  3  2  0  0  0  0
  4  5  1  0  0  0  0
  6  5  1  0  0  0  0
  7  6  2  0  0  0  0
  8  7  1  0  0  0  0
  9  8  2  0  0  0  0
 10  9  1  0  0  0  0
  5 10  2  0  0  0  0
 11  4  1  0  0  0  0
 11 12  2  0  0  0  0
 13 11  1  0  0  0  0
 13 14  1  0  0  0  0
 15 14  1  0  0  0  0
 16 15  2  0  0  0  0
 17 16  1  0  0  0  0
 18 17  2  0  0  0  0
 18 19  1  0  0  0  0
 19 20  1  0  0  0  0
 19 21  1  0  0  0  0
 19 22  1  0  0  0  0
 23 18  1  0  0  0  0
 14 23  2  0  0  0  0
 24 13  2  0  0  0  0
  1 24  1  0  0  0  0
M  END
> <ChemID>
101209

> <CAS>
59756-60-4

> <Original_SMILES>
CN1C=C(C(=O)C(=C1)c1ccccc1)c1cc(ccc1)C(F)(F)F

> <preferred_name>
Fluridone

> <dsstox_substance_id>
DTXSID8024107

> <dsstox_compound_id>
DTXCID404107

> <qc_level>
DSSTox_Low

> <Canonical_QSARr>
CN1C=C(C(=O)C(=C1)C1C=CC=CC=1)C1=CC(=CC=C1)C(F)(F)F

> <InChI_Code_QSARr>
InChI=1S/C19H14F3NO/c1-23-11-16(13-6-3-2-4-7-13)18(24)17(12-23)14-8-5-9-15(10-14)19(20,21)22/h2-12H,1H3

> <InChI Key_QSARr>
YWBVHLJPRPCRSD-UHFFFAOYSA-N

> <Salt_Solvent>


> <Salt_Solvent_ID>
0

> <MPID>
101177

> <Tr_1_Tst_0>
1

> <Ready_Biodeg>
0.0

$$$$
Row1143
  Mrv171c012251911052D          

 29 30  0  0  0  0            999 V2000
    4.5129   -1.7776    0.0000 O   0  0  0  0  0  0  0  0  0  0  0  0
    3.8591   -1.2744    0.0000 C   0  0  0  0  0  0  0  0  0  0  0  0
    3.0964   -1.5889    0.0000 C   0  0  0  0  0  0  0  0  0  0  0  0
    2.4427   -1.0856    0.0000 C   0  0  0  0  0  0  0  0  0  0  0  0
    1.6800   -1.4002    0.0000 C   0  0  0  0  0  0  0  0  0  0  0  0
    1.0263   -0.8969    0.0000 C   0  0  0  0  0  0  0  0  0  0  0  0
    0.2636   -1.2115    0.0000 C   0  0  0  0  0  0  0  0  0  0  0  0
   -0.3902   -0.7082    0.0000 C   0  0  0  0  0  0  0  0  0  0  0  0
   -1.1528   -1.0227    0.0000 C   0  0  0  0  0  0  0  0  0  0  0  0
   -1.8066   -0.5195    0.0000 C   0  0  0  0  0  0  0  0  0  0  0  0
   -2.5693   -0.8340    0.0000 C   0  0  0  0  0  0  0  0  0  0  0  0
   -3.2230   -0.3308    0.0000 C   0  0  0  0  0  0  0  0  0  0  0  0
   -3.9857   -0.6453    0.0000 C   0  0  0  0  0  0  0  0  0  0  0  0
   -4.0947   -1.4631    0.0000 C   0  0  0  0  0  0  0  0  0  0  0  0
    5.2755   -1.4631    0.0000 P   0  0  0  0  0  0  0  0  0  0  0  0
    5.9293   -1.9663    0.0000 O   0  0  0  0  0  0  0  0  0  0  0  0
    5.8203   -2.7841    0.0000 C   0  0  0  0  0  0  0  0  0  0  0  0
    5.0576   -3.0986    0.0000 C   0  0  0  0  0  0  0  0  0  0  0  0
    4.9487   -3.9164    0.0000 C   0  0  0  0  0  0  0  0  0  0  0  0
    5.6024   -4.4196    0.0000 C   0  0  0  0  0  0  0  0  0  0  0  0
    6.3651   -4.1051    0.0000 C   0  0  0  0  0  0  0  0  0  0  0  0
    6.4741   -3.2873    0.0000 C   0  0  0  0  0  0  0  0  0  0  0  0
    5.3845   -0.6453    0.0000 O   0  0  0  0  0  0  0  0  0  0  0  0
    6.1472   -0.3308    0.0000 C   0  0  0  0  0  0  0  0  0  0  0  0
    6.8009   -0.8340    0.0000 C   0  0  0  0  0  0  0  0  0  0  0  0
    7.5636   -0.5195    0.0000 C   0  0  0  0  0  0  0  0  0  0  0  0
    7.6726    0.2983    0.0000 C   0  0  0  0  0  0  0  0  0  0  0  0
    7.0188    0.8015    0.0000 C   0  0  0  0  0  0  0  0  0  0  0  0
    6.2561    0.4870    0.0000 C   0  0  0  0  0  0  0  0  0  0  0  0
  1  2  1  0  0  0  0
  2  3  1  0  0  0  0
  3  4  1  0  0  0  0
  4  5  1  0  0  0  0
  5  6  1  0  0  0  0
  6  7  1  0  0  0  0
  7  8  1  0  0  0  0
  8  9  1  0  0  0  0
  9 10  1  0  0  0  0
 10 11  1  0  0  0  0
 11 12  1  0  0  0  0
 12 13  1  0  0  0  0
 13 14  1  0  0  0  0
  1 15  1  0  0  0  0
 15 16  1  0  0  0  0
 16 17  1  0  0  0  0
 18 17  1  0  0  0  0
 19 18  2  0  0  0  0
 20 19  1  0  0  0  0
 21 20  2  0  0  0  0
 22 21  1  0  0  0  0
 17 22  2  0  0  0  0
 15 23  1  0  0  0  0
 23 24  1  0  0  0  0
 25 24  1  0  0  0  0
 26 25  2  0  0  0  0
 27 26  1  0  0  0  0
 28 27  2  0  0  0  0
 29 28  1  0  0  0  0
 24 29  2  0  0  0  0
M  END
> <ChemID>
101210

> <CAS>
60628-17-3

> <Original_SMILES>
CCCCCCCCCCCCCOP(Oc1ccccc1)Oc1ccccc1

> <preferred_name>
Diphenyl tridecyl phosphite

> <dsstox_substance_id>
DTXSID0069414

> <dsstox_compound_id>
DTXCID3042847

> <qc_level>
Public_High

> <Canonical_QSARr>
CCCCCCCCCCCCCOP(OC1C=CC=CC=1)OC1C=CC=CC=1

> <InChI_Code_QSARr>
InChI=1S/C25H37O3P/c1-2-3-4-5-6-7-8-9-10-11-18-23-26-29(27-24-19-14-12-15-20-24)28-25-21-16-13-17-22-25/h12-17,19-22H,2-11,18,23H2,1H3

> <InChI Key_QSARr>
OGVJEUDMQQIAPV-UHFFFAOYSA-N

> <Salt_Solvent>


> <Salt_Solvent_ID>
0

> <MPID>
101178

> <Tr_1_Tst_0>
1

> <Ready_Biodeg>
0.0

$$$$
Row1144
  Mrv171c012251911052D          

 10 10  0  0  0  0            999 V2000
    2.1433   -1.2375    0.0000 C   0  0  0  0  0  0  0  0  0  0  0  0
    2.8578   -0.8250    0.0000 Cl  0  0  0  0  0  0  0  0  0  0  0  0
    1.4288   -0.8250    0.0000 C   0  0  0  0  0  0  0  0  0  0  0  0
    1.4288    0.0000    0.0000 N   0  0  0  0  0  0  0  0  0  0  0  0
    0.7144   -1.2375    0.0000 C   0  0  0  0  0  0  0  0  0  0  0  0
   -0.0001   -0.8250    0.0000 C   0  0  0  0  0  0  0  0  0  0  0  0
    0.7144   -2.0625    0.0000 C   0  0  0  0  0  0  0  0  0  0  0  0
    1.4288   -2.4750    0.0000 C   0  0  0  0  0  0  0  0  0  0  0  0
    1.4288   -3.3000    0.0000 C   0  0  0  0  0  0  0  0  0  0  0  0
    2.1433   -2.0625    0.0000 C   0  0  0  0  0  0  0  0  0  0  0  0
  1  2  1  0  0  0  0
  3  1  2  0  0  0  0
  3  4  1  0  0  0  0
  5  3  1  0  0  0  0
  5  6  1  0  0  0  0
  7  5  2  0  0  0  0
  8  7  1  0  0  0  0
  8  9  1  0  0  0  0
 10  8  2  0  0  0  0
  1 10  1  0  0  0  0
M  END
> <ChemID>
101211

> <CAS>
63133-82-4

> <Original_SMILES>
Cc1cc(Cl)c(N)c(C)c1

> <preferred_name>
2-Chloro-4,6-dimethylaniline

> <dsstox_substance_id>
DTXSID9040714

> <dsstox_compound_id>
DTXCID7020714

> <qc_level>
DSSTox_Low

> <Canonical_QSARr>
CC1=CC(C)=CC(Cl)=C1N

> <InChI_Code_QSARr>
InChI=1S/C8H10ClN/c1-5-3-6(2)8(10)7(9)4-5/h3-4H,10H2,1-2H3

> <InChI Key_QSARr>
LKAQFOKMMXWRRQ-UHFFFAOYSA-N

> <Salt_Solvent>


> <Salt_Solvent_ID>
0

> <MPID>
101179

> <Tr_1_Tst_0>
1

> <Ready_Biodeg>
0.0

$$$$
Row1145
  Mrv171c012251911052D          

 28 29  0  0  0  0            999 V2000
    2.1434   -6.1875    0.0000 N   0  0  0  0  0  0  0  0  0  0  0  0
    2.8579   -6.6000    0.0000 C   0  0  0  0  0  0  0  0  0  0  0  0
    3.5724   -7.0125    0.0000 C   0  0  0  0  0  0  0  0  0  0  0  0
    3.5724   -7.8375    0.0000 C   0  0  0  0  0  0  0  0  0  0  0  0
    4.2868   -8.2500    0.0000 N   0  0  0  0  0  0  0  0  0  0  0  0
    5.0013   -7.8375    0.0000 C   0  0  0  0  0  0  0  0  0  0  0  0
    5.0013   -7.0125    0.0000 C   0  0  0  0  0  0  0  0  0  0  0  0
    5.7158   -6.6000    0.0000 C   0  0  0  0  0  0  0  0  0  0  0  0
    6.4302   -6.1875    0.0000 N   0  0  0  0  0  0  0  0  0  0  0  0
    4.2868   -9.0750    0.0000 C   0  0  0  0  0  0  0  0  0  0  0  0
    5.0013   -9.4875    0.0000 C   0  0  0  0  0  0  0  0  0  0  0  0
    5.0013  -10.3125    0.0000 C   0  0  0  0  0  0  0  0  0  0  0  0
    4.2868  -10.7250    0.0000 C   0  0  0  0  0  0  0  0  0  0  0  0
    3.5724  -10.3125    0.0000 C   0  0  0  0  0  0  0  0  0  0  0  0
    3.5724   -9.4875    0.0000 C   0  0  0  0  0  0  0  0  0  0  0  0
    4.2868  -11.5500    0.0000 N   0  0  0  0  0  0  0  0  0  0  0  0
    5.0013  -11.9625    0.0000 N   0  0  0  0  0  0  0  0  0  0  0  0
    5.0013  -12.7875    0.0000 C   0  0  0  0  0  0  0  0  0  0  0  0
    5.7158  -13.2000    0.0000 C   0  0  0  0  0  0  0  0  0  0  0  0
    6.4302  -12.7875    0.0000 Cl  0  0  0  0  0  0  0  0  0  0  0  0
    5.7158  -14.0250    0.0000 C   0  0  0  0  0  0  0  0  0  0  0  0
    5.0013  -14.4375    0.0000 C   0  0  0  0  0  0  0  0  0  0  0  0
    4.2868  -14.0250    0.0000 C   0  0  0  0  0  0  0  0  0  0  0  0
    4.2868  -13.2000    0.0000 C   0  0  0  0  0  0  0  0  0  0  0  0
    3.5724  -12.7875    0.0000 Cl  0  0  0  0  0  0  0  0  0  0  0  0
    5.0013  -15.2625    0.0000 N   0  3  0  0  0  0  0  0  0  0  0  0
    5.7158  -15.6750    0.0000 O   0  5  0  0  0  0  0  0  0  0  0  0
    4.2868  -15.6750    0.0000 O   0  0  0  0  0  0  0  0  0  0  0  0
  1  2  3  0  0  0  0
  2  3  1  0  0  0  0
  3  4  1  0  0  0  0
  4  5  1  0  0  0  0
  5  6  1  0  0  0  0
  6  7  1  0  0  0  0
  7  8  1  0  0  0  0
  8  9  3  0  0  0  0
  5 10  1  0  0  0  0
 10 11  1  0  0  0  0
 11 12  2  0  0  0  0
 12 13  1  0  0  0  0
 13 14  2  0  0  0  0
 14 15  1  0  0  0  0
 10 15  2  0  0  0  0
 16 13  1  4  0  0  0
 16 17  2  0  0  0  0
 17 18  1  0  0  0  0
 18 19  1  0  0  0  0
 19 20  1  0  0  0  0
 19 21  2  0  0  0  0
 21 22  1  0  0  0  0
 22 23  2  0  0  0  0
 23 24  1  0  0  0  0
 18 24  2  0  0  0  0
 24 25  1  0  0  0  0
 22 26  1  0  0  0  0
 26 27  1  0  0  0  0
 26 28  2  0  0  0  0
M  CHG  2  26   1  27  -1
M  END
> <ChemID>
101213

> <CAS>
67923-43-7

> <Original_SMILES>
N#CCCN(CCC#N)c1ccc(cc1)N=Nc1c(Cl)cc(cc1Cl)[N+]([O-])=O

> <preferred_name>
Propanenitrile, 3,3'-[[4-[(2,6-dichloro-4-nitrophenyl)azo]phenyl]imino]bis-

> <dsstox_substance_id>
DTXSID7070846

> <dsstox_compound_id>
DTXCID3045275

> <qc_level>
Public_High

> <Canonical_QSARr>
N#CCCN(CCC#N)C1C=CC(=CC=1)N=NC1C(Cl)=CC(=CC=1Cl)[N+]([O-])=O

> <InChI_Code_QSARr>
InChI=1S/C18H14Cl2N6O2/c19-16-11-15(26(27)28)12-17(20)18(16)24-23-13-3-5-14(6-4-13)25(9-1-7-21)10-2-8-22/h3-6,11-12H,1-2,9-10H2

> <InChI Key_QSARr>
MUERWWKQVXXPML-UHFFFAOYSA-N

> <Salt_Solvent>


> <Salt_Solvent_ID>
0

> <MPID>
101180

> <Tr_1_Tst_0>
0

> <Ready_Biodeg>
0.0

$$$$
Row1146
  Mrv171c012251911052D          

 10 10  0  0  0  0            999 V2000
    2.3643   -2.3966    0.0000 Br  0  0  0  0  0  0  0  0  0  0  0  0
    2.3643   -1.5716    0.0000 C   0  0  0  0  0  0  0  0  0  0  0  0
    3.0788   -1.1591    0.0000 C   0  0  0  0  0  0  0  0  0  0  0  0
    3.0788   -0.3341    0.0000 C   0  0  0  0  0  0  0  0  0  0  0  0
    2.3643    0.0784    0.0000 C   0  0  0  0  0  0  0  0  0  0  0  0
    2.3643    0.9034    0.0000 C   0  0  0  0  0  0  0  0  0  0  0  0
    3.0788    1.3159    0.0000 C   0  0  0  0  0  0  0  0  0  0  0  0
    3.0788    2.1409    0.0000 N   0  0  0  0  0  0  0  0  0  0  0  0
    1.6499   -0.3341    0.0000 C   0  0  0  0  0  0  0  0  0  0  0  0
    1.6499   -1.1591    0.0000 C   0  0  0  0  0  0  0  0  0  0  0  0
  1  2  1  0  0  0  0
  3  2  1  0  0  0  0
  4  3  2  0  0  0  0
  5  4  1  0  0  0  0
  5  6  1  0  0  0  0
  6  7  1  0  0  0  0
  7  8  1  0  0  0  0
  9  5  2  0  0  0  0
 10  9  1  0  0  0  0
  2 10  2  0  0  0  0
M  END
> <ChemID>
101214

> <CAS>
73918-56-6

> <Original_SMILES>
NCCc1ccc(Br)cc1

> <preferred_name>
p-Bromophenethylamine

> <dsstox_substance_id>
DTXSID20224524

> <dsstox_compound_id>
DTXCID50147015

> <qc_level>
Public_Medium

> <Canonical_QSARr>
NCCC1=CC=C(Br)C=C1

> <InChI_Code_QSARr>
InChI=1S/C8H10BrN/c9-8-3-1-7(2-4-8)5-6-10/h1-4H,5-6,10H2

> <InChI Key_QSARr>
ZSZCXAOQVBEPME-UHFFFAOYSA-N

> <Salt_Solvent>


> <Salt_Solvent_ID>
0

> <MPID>
101181

> <Tr_1_Tst_0>
1

> <Ready_Biodeg>
1.0

$$$$
Row1147
  Mrv171c012251911052D          

 23 25  0  0  0  0            999 V2000
    2.8593   -1.6330    0.0000 C   0  0  0  0  0  0  0  0  0  0  0  0
    3.5738   -2.0455    0.0000 C   0  0  0  0  0  0  0  0  0  0  0  0
    4.2883   -1.6330    0.0000 N   0  0  0  0  0  0  0  0  0  0  0  0
    5.0028   -2.0455    0.0000 C   0  0  0  0  0  0  0  0  0  0  0  0
    5.7172   -1.6330    0.0000 C   0  0  0  0  0  0  0  0  0  0  0  0
    6.4317   -2.0455    0.0000 C   0  0  0  0  0  0  0  0  0  0  0  0
    6.4317   -2.8705    0.0000 C   0  0  0  0  0  0  0  0  0  0  0  0
    5.7172   -3.2830    0.0000 C   0  0  0  0  0  0  0  0  0  0  0  0
    5.0028   -2.8705    0.0000 C   0  0  0  0  0  0  0  0  0  0  0  0
    4.2883   -3.2830    0.0000 C   0  0  0  0  0  0  0  0  0  0  0  0
    3.5738   -2.8705    0.0000 C   0  0  0  0  0  0  0  0  0  0  0  0
    2.8593   -3.2830    0.0000 C   0  0  0  0  0  0  0  0  0  0  0  0
    2.1449   -2.8705    0.0000 O   0  0  0  0  0  0  0  0  0  0  0  0
    2.8593   -4.1080    0.0000 O   0  0  0  0  0  0  0  0  0  0  0  0
    2.7731   -0.8125    0.0000 N   0  0  0  0  0  0  0  0  0  0  0  0
    1.9661   -0.6410    0.0000 C   0  0  0  0  0  0  0  0  0  0  0  0
    1.6306    0.1127    0.0000 O   0  0  0  0  0  0  0  0  0  0  0  0
    1.5536   -1.3554    0.0000 C   0  0  0  0  0  0  0  0  0  0  0  0
    0.8862   -0.8705    0.0000 C   0  0  0  0  0  0  0  0  0  0  0  0
    1.0016   -1.9685    0.0000 C   0  0  0  0  0  0  0  0  0  0  0  0
    1.2565   -2.7531    0.0000 C   0  0  0  0  0  0  0  0  0  0  0  0
    0.1946   -1.7970    0.0000 C   0  0  0  0  0  0  0  0  0  0  0  0
    2.1057   -1.9685    0.0000 N   0  0  0  0  0  0  0  0  0  0  0  0
  1  2  1  0  0  0  0
  3  2  2  0  0  0  0
  4  3  1  0  0  0  0
  4  5  1  0  0  0  0
  5  6  2  0  0  0  0
  6  7  1  0  0  0  0
  7  8  2  0  0  0  0
  8  9  1  0  0  0  0
  9  4  2  0  0  0  0
 10  9  1  0  0  0  0
 11 10  2  0  0  0  0
  2 11  1  0  0  0  0
 11 12  1  0  0  0  0
 12 13  1  0  0  0  0
 12 14  2  0  0  0  0
 15  1  1  0  0  0  0
 16 15  1  0  0  0  0
 16 17  2  0  0  0  0
 18 16  1  0  0  0  0
 18 19  1  0  0  0  0
 18 20  1  0  0  0  0
 20 21  1  0  0  0  0
 20 22  1  0  0  0  0
 23 18  1  0  0  0  0
  1 23  2  0  0  0  0
M  END
> <ChemID>
101215

> <CAS>
81335-37-7

> <Original_SMILES>
CC(C)C1(C)N=C(NC1=O)c1[n]c2ccccc2cc1C(O)=O

> <preferred_name>
Imazaquin

> <dsstox_substance_id>
DTXSID3024152

> <dsstox_compound_id>
DTXCID904152

> <qc_level>
DSSTox_Low

> <Canonical_QSARr>
CC1(N=C(NC1=O)C1=NC2C=CC=CC=2C=C1C(O)=O)C(C)C

> <InChI_Code_QSARr>
InChI=1S/C17H17N3O3/c1-9(2)17(3)16(23)19-14(20-17)13-11(15(21)22)8-10-6-4-5-7-12(10)18-13/h4-9H,1-3H3,(H,21,22)(H,19,20,23)

> <InChI Key_QSARr>
CABMTIJINOIHOD-UHFFFAOYSA-N

> <Salt_Solvent>


> <Salt_Solvent_ID>
0

> <MPID>
101182

> <Tr_1_Tst_0>
1

> <Ready_Biodeg>
0.0

$$$$
Row1148
  Mrv171c012251911052D          

 11 11  0  0  0  0            999 V2000
    4.7561    0.4875    0.0000 S   0  0  0  0  0  0  0  0  0  0  0  0
    4.7561   -0.3375    0.0000 C   0  0  0  0  0  0  0  0  0  0  0  0
    4.0416   -0.7500    0.0000 N   0  0  0  0  0  0  0  0  0  0  0  0
    4.0416   -1.5750    0.0000 C   0  0  0  0  0  0  0  0  0  0  0  0
    4.7561   -1.9875    0.0000 C   0  0  0  0  0  0  0  0  0  0  0  0
    5.4706   -1.5750    0.0000 C   0  0  0  0  0  0  0  0  0  0  0  0
    5.4706   -0.7500    0.0000 N   0  0  0  0  0  0  0  0  0  0  0  0
    4.0416    0.9000    0.0000 C   0  0  0  0  0  0  0  0  0  0  0  0
    4.0416    1.7250    0.0000 C   0  0  0  0  0  0  0  0  0  0  0  0
    3.3271    2.1375    0.0000 O   0  0  0  0  0  0  0  0  0  0  0  0
    4.7561    2.1375    0.0000 O   0  0  0  0  0  0  0  0  0  0  0  0
  1  2  1  0  0  0  0
  3  2  2  0  0  0  0
  4  3  1  0  0  0  0
  5  4  2  0  0  0  0
  6  5  1  0  0  0  0
  7  6  2  0  0  0  0
  2  7  1  0  0  0  0
  1  8  1  0  0  0  0
  8  9  1  0  0  0  0
  9 10  2  0  0  0  0
  9 11  1  0  0  0  0
M  END
> <ChemID>
101216

> <CAS>
88768-45-0

> <Original_SMILES>
OC(=O)CSc1[n]ccc[n]1

> <preferred_name>
(Pyrimidin-2-ylthio)acetic acid

> <dsstox_substance_id>
DTXSID20237311

> <dsstox_compound_id>
DTXCID20159802

> <qc_level>
Public_Medium

> <Canonical_QSARr>
OC(=O)CSC1N=CC=CN=1

> <InChI_Code_QSARr>
InChI=1S/C6H6N2O2S/c9-5(10)4-11-6-7-2-1-3-8-6/h1-3H,4H2,(H,9,10)

> <InChI Key_QSARr>
NIEOYUNNKKAQKI-UHFFFAOYSA-N

> <Salt_Solvent>


> <Salt_Solvent_ID>
0

> <MPID>
101183

> <Tr_1_Tst_0>
1

> <Ready_Biodeg>
1.0

$$$$
Row1149
  Mrv171c012251911052D          

 16 18  0  0  0  0            999 V2000
    1.9148   -2.5501    0.0000 C   0  0  0  0  0  0  0  0  0  0  0  0
    1.9148   -3.3751    0.0000 C   0  0  0  0  0  0  0  0  0  0  0  0
    1.2473   -3.8600    0.0000 O   0  0  0  0  0  0  0  0  0  0  0  0
    1.5023   -4.6446    0.0000 C   0  0  0  0  0  0  0  0  0  0  0  0
    2.3273   -4.6446    0.0000 C   0  0  0  0  0  0  0  0  0  0  0  0
    2.5822   -3.8600    0.0000 N   0  0  0  0  0  0  0  0  0  0  0  0
    2.6293   -2.1376    0.0000 C   0  0  0  0  0  0  0  0  0  0  0  0
    2.6293   -1.3126    0.0000 C   0  0  0  0  0  0  0  0  0  0  0  0
    3.3437   -0.9001    0.0000 C   0  0  0  0  0  0  0  0  0  0  0  0
    4.0974   -1.2357    0.0000 O   0  0  0  0  0  0  0  0  0  0  0  0
    4.6494   -0.6226    0.0000 C   0  0  0  0  0  0  0  0  0  0  0  0
    4.2369    0.0919    0.0000 C   0  0  0  0  0  0  0  0  0  0  0  0
    3.4300   -0.0796    0.0000 N   0  0  0  0  0  0  0  0  0  0  0  0
    1.9148   -0.9001    0.0000 C   0  0  0  0  0  0  0  0  0  0  0  0
    1.2003   -1.3126    0.0000 C   0  0  0  0  0  0  0  0  0  0  0  0
    1.2003   -2.1376    0.0000 C   0  0  0  0  0  0  0  0  0  0  0  0
  1  2  1  0  0  0  0
  3  2  1  0  0  0  0
  4  3  1  0  0  0  0
  5  4  2  0  0  0  0
  6  5  1  0  0  0  0
  2  6  2  0  0  0  0
  7  1  1  0  0  0  0
  8  7  2  0  0  0  0
  8  9  1  0  0  0  0
 10  9  1  0  0  0  0
 11 10  1  0  0  0  0
 12 11  2  0  0  0  0
 13 12  1  0  0  0  0
  9 13  2  0  0  0  0
 14  8  1  0  0  0  0
 15 14  2  0  0  0  0
 16 15  1  0  0  0  0
  1 16  2  0  0  0  0
M  END
> <ChemID>
101230

> <CAS>
NOCAS_877055

> <Original_SMILES>
c1c(cccc1-c1[n]cco1)-c1[n]cco1

> <preferred_name>


> <dsstox_substance_id>
DTXSID80877055

> <dsstox_compound_id>
DTXCID001015139

> <qc_level>


> <Canonical_QSARr>
C1C(=CC=CC=1C1=NC=CO1)C1=NC=CO1

> <InChI_Code_QSARr>
InChI=1S/C12H8N2O2/c1-2-9(11-13-4-6-15-11)8-10(3-1)12-14-5-7-16-12/h1-8H

> <InChI Key_QSARr>
XWGBGCDTDXIECR-UHFFFAOYSA-N

> <Salt_Solvent>


> <Salt_Solvent_ID>
0

> <MPID>
101184

> <Tr_1_Tst_0>
0

> <Ready_Biodeg>
0.0

$$$$
Row1150
  Mrv171c012251911052D          

 16 18  0  0  0  0            999 V2000
    0.8474   -0.9406    0.0000 C   0  0  0  0  0  0  0  0  0  0  0  0
    0.0224   -0.9406    0.0000 C   0  0  0  0  0  0  0  0  0  0  0  0
   -0.3901   -1.6551    0.0000 C   0  0  0  0  0  0  0  0  0  0  0  0
    0.0224   -2.3696    0.0000 C   0  0  0  0  0  0  0  0  0  0  0  0
    0.8474   -2.3696    0.0000 C   0  0  0  0  0  0  0  0  0  0  0  0
    1.2599   -1.6551    0.0000 C   0  0  0  0  0  0  0  0  0  0  0  0
    2.0849   -1.6551    0.0000 N   0  0  0  0  0  0  0  0  0  0  0  0
    2.5699   -0.9876    0.0000 N   0  0  0  0  0  0  0  0  0  0  0  0
    3.3545   -1.2426    0.0000 C   0  0  0  0  0  0  0  0  0  0  0  0
    4.0690   -0.8301    0.0000 C   0  0  0  0  0  0  0  0  0  0  0  0
    4.7834   -1.2426    0.0000 C   0  0  0  0  0  0  0  0  0  0  0  0
    4.7834   -2.0676    0.0000 C   0  0  0  0  0  0  0  0  0  0  0  0
    4.0690   -2.4801    0.0000 C   0  0  0  0  0  0  0  0  0  0  0  0
    3.3545   -2.0676    0.0000 C   0  0  0  0  0  0  0  0  0  0  0  0
    2.5699   -2.3225    0.0000 N   0  0  0  0  0  0  0  0  0  0  0  0
    1.2599   -0.2261    0.0000 O   0  0  0  0  0  0  0  0  0  0  0  0
  2  1  1  0  0  0  0
  3  2  2  0  0  0  0
  4  3  1  0  0  0  0
  5  4  2  0  0  0  0
  6  5  1  0  0  0  0
  1  6  2  0  0  0  0
  6  7  1  0  0  0  0
  8  7  1  0  0  0  0
  9  8  2  0  0  0  0
  9 10  1  0  0  0  0
 10 11  2  0  0  0  0
 11 12  1  0  0  0  0
 12 13  2  0  0  0  0
 13 14  1  0  0  0  0
 14  9  1  0  0  0  0
 15 14  2  0  0  0  0
  7 15  1  0  0  0  0
  1 16  1  0  0  0  0
M  END
> <ChemID>
101232

> <CAS>
10096-91-0

> <Original_SMILES>
Oc1ccccc1-[n]1[n]c2ccccc2[n]1

> <preferred_name>


> <dsstox_substance_id>
DTXSID60877078

> <dsstox_compound_id>
DTXCID901015162

> <qc_level>


> <Canonical_QSARr>
OC1C=CC=CC=1N1N=C2C=CC=CC2=N1

> <InChI_Code_QSARr>
InChI=1S/C12H9N3O/c16-12-8-4-3-7-11(12)15-13-9-5-1-2-6-10(9)14-15/h1-8,16H

> <InChI Key_QSARr>
FJGQBLRYBUAASW-UHFFFAOYSA-N

> <Salt_Solvent>


> <Salt_Solvent_ID>
0

> <MPID>
101185

> <Tr_1_Tst_0>
1

> <Ready_Biodeg>
0.0

$$$$
Row1151
  Mrv171c012251911052D          

 11 11  0  0  0  0            999 V2000
    1.0221   -2.5625    0.0000 O   0  0  0  0  0  0  0  0  0  0  0  0
    1.7366   -2.1500    0.0000 C   0  0  0  0  0  0  0  0  0  0  0  0
    2.4510   -2.5625    0.0000 O   0  0  0  0  0  0  0  0  0  0  0  0
    3.1655   -2.1500    0.0000 C   0  0  0  0  0  0  0  0  0  0  0  0
    3.8800   -2.5625    0.0000 C   0  0  0  0  0  0  0  0  0  0  0  0
    4.5945   -2.1500    0.0000 C   0  0  0  0  0  0  0  0  0  0  0  0
    5.3089   -1.7375    0.0000 C   0  0  0  0  0  0  0  0  0  0  0  0
    1.7366   -1.3250    0.0000 C   0  0  0  0  0  0  0  0  0  0  0  0
    1.0221   -0.9125    0.0000 C   0  0  0  0  0  0  0  0  0  0  0  0
    0.3076   -1.3250    0.0000 C   0  0  0  0  0  0  0  0  0  0  0  0
    0.3076   -2.1500    0.0000 C   0  0  0  0  0  0  0  0  0  0  0  0
  2  1  1  0  0  0  0
  2  3  1  0  0  0  0
  3  4  1  0  0  0  0
  4  5  1  0  0  0  0
  5  6  1  0  0  0  0
  6  7  3  0  0  0  0
  8  2  1  0  0  0  0
  9  8  1  0  0  0  0
 10  9  1  0  0  0  0
 11 10  1  0  0  0  0
  1 11  1  0  0  0  0
M  END
> <ChemID>
101233

> <CAS>
NOCAS_875820

> <Original_SMILES>
C#CCCOC1CCCCO1

> <preferred_name>


> <dsstox_substance_id>
DTXSID90875820

> <dsstox_compound_id>
DTXCID501002496

> <qc_level>


> <Canonical_QSARr>
C#CCCOC1CCCCO1

> <InChI_Code_QSARr>
InChI=1S/C9H14O2/c1-2-3-7-10-9-6-4-5-8-11-9/h1,9H,3-8H2

> <InChI Key_QSARr>
ZQZSNKJFOFAJQX-UHFFFAOYSA-N

> <Salt_Solvent>


> <Salt_Solvent_ID>
0

> <MPID>
101186

> <Tr_1_Tst_0>
1

> <Ready_Biodeg>
1.0

$$$$
Row1152
  Mrv171c012251911052D          

 16 18  0  0  0  0            999 V2000
    2.7081    1.3997    0.0000 Br  0  0  0  0  0  0  0  0  0  0  0  0
    2.9630    0.6151    0.0000 C   0  0  0  0  0  0  0  0  0  0  0  0
    2.4110    0.0020    0.0000 C   0  0  0  0  0  0  0  0  0  0  0  0
    1.6040    0.1735    0.0000 N   0  0  0  0  0  0  0  0  0  0  0  0
    2.6660   -0.7826    0.0000 C   0  0  0  0  0  0  0  0  0  0  0  0
    2.1139   -1.3957    0.0000 Br  0  0  0  0  0  0  0  0  0  0  0  0
    3.4729   -0.9541    0.0000 C   0  0  0  0  0  0  0  0  0  0  0  0
    4.0250   -0.3410    0.0000 C   0  0  0  0  0  0  0  0  0  0  0  0
    4.8500   -0.3410    0.0000 C   0  0  0  0  0  0  0  0  0  0  0  0
    5.4020   -0.9541    0.0000 C   0  0  0  0  0  0  0  0  0  0  0  0
    6.2090   -0.7826    0.0000 C   0  0  0  0  0  0  0  0  0  0  0  0
    6.4639    0.0020    0.0000 C   0  0  0  0  0  0  0  0  0  0  0  0
    5.9119    0.6151    0.0000 C   0  0  0  0  0  0  0  0  0  0  0  0
    5.1049    0.4436    0.0000 C   0  0  0  0  0  0  0  0  0  0  0  0
    4.4375    0.9285    0.0000 C   0  0  0  0  0  0  0  0  0  0  0  0
    3.7700    0.4436    0.0000 C   0  0  0  0  0  0  0  0  0  0  0  0
  1  2  1  0  0  0  0
  3  2  1  0  0  0  0
  3  4  1  0  0  0  0
  5  3  2  0  0  0  0
  5  6  1  0  0  0  0
  7  5  1  0  0  0  0
  8  7  2  0  0  0  0
  8  9  1  0  0  0  0
 10  9  2  0  0  0  0
 11 10  1  0  0  0  0
 12 11  2  0  0  0  0
 13 12  1  0  0  0  0
 14 13  2  0  0  0  0
  9 14  1  0  0  0  0
 14 15  1  0  0  0  0
 15 16  1  0  0  0  0
  2 16  2  0  0  0  0
 16  8  1  0  0  0  0
M  END
> <ChemID>
101235

> <CAS>
3405-09-2

> <Original_SMILES>
Nc1c(Br)c2Cc3ccccc3-c2cc1Br

> <preferred_name>
2-Amino-1,3-dibromofluorene

> <dsstox_substance_id>
DTXSID10392342

> <dsstox_compound_id>
DTXCID60343203

> <qc_level>
Public_Low

> <Canonical_QSARr>
NC1C(Br)=C2CC3=CC=CC=C3C2=CC=1Br

> <InChI_Code_QSARr>
InChI=1S/C13H9Br2N/c14-11-6-9-8-4-2-1-3-7(8)5-10(9)12(15)13(11)16/h1-4,6H,5,16H2

> <InChI Key_QSARr>
LHRWVIZWZMXYPI-UHFFFAOYSA-N

> <Salt_Solvent>


> <Salt_Solvent_ID>
0

> <MPID>
101187

> <Tr_1_Tst_0>
1

> <Ready_Biodeg>
0.0

$$$$
Row1153
  Mrv171c012251911052D          

  8  8  0  0  0  0            999 V2000
    4.0807    0.4183    0.0000 S   0  0  0  0  0  0  0  0  0  0  0  0
    3.4132    0.9032    0.0000 C   0  0  0  0  0  0  0  0  0  0  0  0
    3.4132    1.7282    0.0000 N   0  0  0  0  0  0  0  0  0  0  0  0
    2.7458    0.4183    0.0000 N   0  0  0  0  0  0  0  0  0  0  0  0
    3.0007   -0.3663    0.0000 C   0  0  0  0  0  0  0  0  0  0  0  0
    3.8257   -0.3663    0.0000 C   0  0  0  0  0  0  0  0  0  0  0  0
    4.3106   -1.0338    0.0000 C   0  0  0  0  0  0  0  0  0  0  0  0
    5.1311   -0.9475    0.0000 O   0  0  0  0  0  0  0  0  0  0  0  0
  2  1  1  0  0  0  0
  2  3  1  0  0  0  0
  4  2  2  0  0  0  0
  5  4  1  0  0  0  0
  6  5  2  0  0  0  0
  1  6  1  0  0  0  0
  6  7  1  0  0  0  0
  7  8  2  0  0  0  0
M  END
> <ChemID>
101236

> <CAS>
1003-61-8

> <Original_SMILES>
Nc1[n]cc(C=O)[s]1

> <preferred_name>
2-Amino-5-formylthiazole

> <dsstox_substance_id>
DTXSID80372252

> <dsstox_compound_id>
DTXCID40323285

> <qc_level>
Public_Low

> <Canonical_QSARr>
NC1=NC=C(C=O)S1

> <InChI_Code_QSARr>
InChI=1S/C4H4N2OS/c5-4-6-1-3(2-7)8-4/h1-2H,(H2,5,6)

> <InChI Key_QSARr>
HZKMBJCDAXLMDN-UHFFFAOYSA-N

> <Salt_Solvent>


> <Salt_Solvent_ID>
0

> <MPID>
101188

> <Tr_1_Tst_0>
0

> <Ready_Biodeg>
1.0

$$$$
Row1154
  Mrv171c012251911052D          

 20 20  0  0  0  0            999 V2000
   -2.8579   -5.7750    0.0000 C   0  0  0  0  0  0  0  0  0  0  0  0
   -2.1434   -6.1875    0.0000 C   0  0  0  0  0  0  0  0  0  0  0  0
   -1.4289   -5.7750    0.0000 C   0  0  0  0  0  0  0  0  0  0  0  0
   -0.7145   -6.1875    0.0000 C   0  0  0  0  0  0  0  0  0  0  0  0
    0.0000   -5.7750    0.0000 C   0  0  0  0  0  0  0  0  0  0  0  0
    0.7145   -6.1875    0.0000 C   0  0  0  0  0  0  0  0  0  0  0  0
    1.4289   -5.7750    0.0000 C   0  0  0  0  0  0  0  0  0  0  0  0
    2.1434   -6.1875    0.0000 C   0  0  0  0  0  0  0  0  0  0  0  0
    2.8579   -5.7750    0.0000 C   0  0  0  0  0  0  0  0  0  0  0  0
    3.5724   -6.1875    0.0000 C   0  0  0  0  0  0  0  0  0  0  0  0
    4.2868   -5.7750    0.0000 C   0  0  0  0  0  0  0  0  0  0  0  0
    4.2868   -4.9500    0.0000 C   0  0  0  0  0  0  0  0  0  0  0  0
    5.0013   -4.5375    0.0000 C   0  0  0  0  0  0  0  0  0  0  0  0
    5.7158   -4.9500    0.0000 C   0  0  0  0  0  0  0  0  0  0  0  0
    6.4302   -4.5375    0.0000 O   0  0  0  0  0  0  0  0  0  0  0  0
    5.7158   -5.7750    0.0000 C   0  0  0  0  0  0  0  0  0  0  0  0
    5.0013   -6.1875    0.0000 C   0  0  0  0  0  0  0  0  0  0  0  0
    6.4302   -6.1875    0.0000 C   0  0  0  0  0  0  0  0  0  0  0  0
    6.4302   -7.0125    0.0000 N   0  0  0  0  0  0  0  0  0  0  0  0
    7.1447   -7.4250    0.0000 O   0  0  0  0  0  0  0  0  0  0  0  0
  1  2  1  0  0  0  0
  2  3  1  0  0  0  0
  3  4  1  0  0  0  0
  4  5  1  0  0  0  0
  5  6  1  0  0  0  0
  6  7  1  0  0  0  0
  7  8  1  0  0  0  0
  8  9  1  0  0  0  0
  9 10  1  0  0  0  0
 10 11  1  0  0  0  0
 11 12  1  0  0  0  0
 12 13  2  0  0  0  0
 13 14  1  0  0  0  0
 14 15  1  0  0  0  0
 14 16  2  0  0  0  0
 16 17  1  0  0  0  0
 11 17  2  0  0  0  0
 16 18  1  0  0  0  0
 18 19  2  0  0  0  0
 19 20  1  4  0  0  0
M  END
> <ChemID>
101237

> <CAS>
NOCAS_878232

> <Original_SMILES>
CCCCCCCCCCc1cc(C=NO)c(O)cc1

> <preferred_name>


> <dsstox_substance_id>
DTXSID10878232

> <dsstox_compound_id>
DTXCID501016287

> <qc_level>


> <Canonical_QSARr>
CCCCCCCCCCC1C=CC(O)=C(C=1)C=NO

> <InChI_Code_QSARr>
InChI=1S/C17H27NO2/c1-2-3-4-5-6-7-8-9-10-15-11-12-17(19)16(13-15)14-18-20/h11-14,19-20H,2-10H2,1H3

> <InChI Key_QSARr>
VJLKZJTURMMZDJ-UHFFFAOYSA-N

> <Salt_Solvent>


> <Salt_Solvent_ID>
0

> <MPID>
101189

> <Tr_1_Tst_0>
1

> <Ready_Biodeg>
1.0

$$$$
Row1155
  Mrv171c012251911052D          

 13 13  0  0  0  0            999 V2000
    3.0758   -3.0777    0.0000 C   0  0  0  0  0  0  0  0  0  0  0  0
    3.0758   -3.9027    0.0000 O   0  0  0  0  0  0  0  0  0  0  0  0
    3.7902   -2.6652    0.0000 C   0  0  0  0  0  0  0  0  0  0  0  0
    3.7902   -1.8402    0.0000 C   0  0  0  0  0  0  0  0  0  0  0  0
    3.0758   -1.4277    0.0000 C   0  0  0  0  0  0  0  0  0  0  0  0
    3.0758   -0.6027    0.0000 C   0  0  0  0  0  0  0  0  0  0  0  0
    2.3613   -0.1902    0.0000 C   0  0  0  0  0  0  0  0  0  0  0  0
    2.3613    0.6348    0.0000 C   0  0  0  0  0  0  0  0  0  0  0  0
    1.6468    1.0473    0.0000 C   0  0  0  0  0  0  0  0  0  0  0  0
    2.3613   -1.8402    0.0000 C   0  0  0  0  0  0  0  0  0  0  0  0
    2.3613   -2.6652    0.0000 C   0  0  0  0  0  0  0  0  0  0  0  0
    1.6468   -3.0777    0.0000 O   0  0  0  0  0  0  0  0  0  0  0  0
    1.6468   -3.9027    0.0000 C   0  0  0  0  0  0  0  0  0  0  0  0
  1  2  1  0  0  0  0
  3  1  1  0  0  0  0
  4  3  1  0  0  0  0
  5  4  1  0  0  0  0
  5  6  1  0  0  0  0
  6  7  1  0  0  0  0
  7  8  1  0  0  0  0
  8  9  1  0  0  0  0
 10  5  1  0  0  0  0
 11 10  1  0  0  0  0
  1 11  1  0  0  0  0
 11 12  1  0  0  0  0
 12 13  1  0  0  0  0
M  END
> <ChemID>
101238

> <CAS>
NOCAS_874269

> <Original_SMILES>
CCCCC1CC(OC)C(O)CC1

> <preferred_name>


> <dsstox_substance_id>
DTXSID60874269

> <dsstox_compound_id>
DTXCID701012398

> <qc_level>


> <Canonical_QSARr>
CCCCC1CC(OC)C(O)CC1

> <InChI_Code_QSARr>
InChI=1S/C11H22O2/c1-3-4-5-9-6-7-10(12)11(8-9)13-2/h9-12H,3-8H2,1-2H3

> <InChI Key_QSARr>
QPDWFJFHTLBWOS-UHFFFAOYSA-N

> <Salt_Solvent>


> <Salt_Solvent_ID>
0

> <MPID>
101190

> <Tr_1_Tst_0>
1

> <Ready_Biodeg>
1.0

$$$$
Row1156
  Mrv171c012251911052D          

 14 14  0  0  0  0            999 V2000
    3.4872   -2.2135    0.0000 Cl  0  0  0  0  0  0  0  0  0  0  0  0
    3.4872   -1.3885    0.0000 C   0  0  0  0  0  0  0  0  0  0  0  0
    4.2016   -0.9760    0.0000 C   0  0  0  0  0  0  0  0  0  0  0  0
    4.2016   -0.1510    0.0000 C   0  0  0  0  0  0  0  0  0  0  0  0
    3.4872    0.2615    0.0000 C   0  0  0  0  0  0  0  0  0  0  0  0
    3.4872    1.0865    0.0000 C   0  0  0  0  0  0  0  0  0  0  0  0
    2.7727    1.4990    0.0000 C   0  0  0  0  0  0  0  0  0  0  0  0
    2.0582    1.9115    0.0000 F   0  0  0  0  0  0  0  0  0  0  0  0
    3.1852    2.2135    0.0000 F   0  0  0  0  0  0  0  0  0  0  0  0
    2.3602    0.7845    0.0000 F   0  0  0  0  0  0  0  0  0  0  0  0
    4.2016    1.4990    0.0000 O   0  0  0  0  0  0  0  0  0  0  0  0
    2.7727   -0.1510    0.0000 C   0  0  0  0  0  0  0  0  0  0  0  0
    2.7727   -0.9760    0.0000 C   0  0  0  0  0  0  0  0  0  0  0  0
    2.0582   -1.3885    0.0000 C   0  0  0  0  0  0  0  0  0  0  0  0
  1  2  1  0  0  0  0
  3  2  1  0  0  0  0
  4  3  2  0  0  0  0
  5  4  1  0  0  0  0
  5  6  1  0  0  0  0
  6  7  1  0  0  0  0
  7  8  1  0  0  0  0
  7  9  1  0  0  0  0
  7 10  1  0  0  0  0
  6 11  2  0  0  0  0
 12  5  2  0  0  0  0
 13 12  1  0  0  0  0
  2 13  2  0  0  0  0
 13 14  1  0  0  0  0
M  END
> <ChemID>
101240

> <CAS>
286017-71-8

> <Original_SMILES>
Cc1cc(ccc1Cl)C(=O)C(F)(F)F

> <preferred_name>
4'-Chloro-3'-methyl-2,2,2-trifluoroacetophenone

> <dsstox_substance_id>
DTXSID80374019

> <dsstox_compound_id>
DTXCID30325051

> <qc_level>
Public_Low

> <Canonical_QSARr>
CC1C=C(C=CC=1Cl)C(=O)C(F)(F)F

> <InChI_Code_QSARr>
InChI=1S/C9H6ClF3O/c1-5-4-6(2-3-7(5)10)8(14)9(11,12)13/h2-4H,1H3

> <InChI Key_QSARr>
ZJBYBUSSCVQOMY-UHFFFAOYSA-N

> <Salt_Solvent>


> <Salt_Solvent_ID>
0

> <MPID>
101191

> <Tr_1_Tst_0>
1

> <Ready_Biodeg>
0.0

$$$$
Row1157
  Mrv171c012251911052D          

 10 10  0  0  0  0            999 V2000
    2.9361    0.8662    0.0000 O   0  0  0  0  0  0  0  0  0  0  0  0
    3.6505    1.2787    0.0000 C   0  0  0  0  0  0  0  0  0  0  0  0
    3.6505    2.1037    0.0000 C   0  0  0  0  0  0  0  0  0  0  0  0
    4.3650    0.8662    0.0000 O   0  0  0  0  0  0  0  0  0  0  0  0
    2.9361    0.0412    0.0000 C   0  0  0  0  0  0  0  0  0  0  0  0
    2.2216   -0.3713    0.0000 C   0  0  0  0  0  0  0  0  0  0  0  0
    2.2216   -1.1963    0.0000 N   0  0  0  0  0  0  0  0  0  0  0  0
    2.9361   -1.6088    0.0000 C   0  0  0  0  0  0  0  0  0  0  0  0
    3.6505   -1.1963    0.0000 C   0  0  0  0  0  0  0  0  0  0  0  0
    3.6505   -0.3713    0.0000 C   0  0  0  0  0  0  0  0  0  0  0  0
  1  2  1  0  0  0  0
  2  3  1  0  0  0  0
  2  4  2  0  0  0  0
  1  5  1  0  0  0  0
  6  5  2  0  0  0  0
  7  6  1  0  0  0  0
  8  7  2  0  0  0  0
  9  8  1  0  0  0  0
 10  9  2  0  0  0  0
  5 10  1  0  0  0  0
M  END
> <ChemID>
101241

> <CAS>
17747-43-2

> <Original_SMILES>
CC(=O)Oc1ccc[n]c1

> <preferred_name>
3-Pyridyl acetate

> <dsstox_substance_id>
DTXSID20170315

> <dsstox_compound_id>
DTXCID7092806

> <qc_level>
Public_Medium

> <Canonical_QSARr>
CC(=O)OC1C=CC=NC=1

> <InChI_Code_QSARr>
InChI=1S/C7H7NO2/c1-6(9)10-7-3-2-4-8-5-7/h2-5H,1H3

> <InChI Key_QSARr>
QZDWODWEESGPLC-UHFFFAOYSA-N

> <Salt_Solvent>


> <Salt_Solvent_ID>
0

> <MPID>
101192

> <Tr_1_Tst_0>
0

> <Ready_Biodeg>
1.0

$$$$
Row1158
  Mrv171c012251911052D          

 10 10  0  0  0  0            999 V2000
    2.5006    1.6913    0.0000 N   0  0  0  0  0  0  0  0  0  0  0  0
    1.7862    1.2788    0.0000 C   0  0  0  0  0  0  0  0  0  0  0  0
    1.0717    0.8663    0.0000 C   0  0  0  0  0  0  0  0  0  0  0  0
    0.3572    1.2788    0.0000 C   0  0  0  0  0  0  0  0  0  0  0  0
    0.3572    2.1038    0.0000 O   0  0  0  0  0  0  0  0  0  0  0  0
   -0.3572    0.8663    0.0000 N   0  0  0  0  0  0  0  0  0  0  0  0
   -0.3572    0.0413    0.0000 C   0  0  0  0  0  0  0  0  0  0  0  0
   -1.0717   -0.3712    0.0000 C   0  0  0  0  0  0  0  0  0  0  0  0
    0.3572   -0.3712    0.0000 C   0  0  0  0  0  0  0  0  0  0  0  0
    1.0717    0.0413    0.0000 C   0  0  0  0  0  0  0  0  0  0  0  0
  1  2  3  0  0  0  0
  2  3  1  0  0  0  0
  4  3  1  0  0  0  0
  4  5  1  0  0  0  0
  6  4  2  0  0  0  0
  7  6  1  0  0  0  0
  7  8  1  0  0  0  0
  9  7  2  0  0  0  0
 10  9  1  0  0  0  0
  3 10  2  0  0  0  0
M  END
> <ChemID>
101242

> <CAS>
4241-27-4

> <Original_SMILES>
Cc1ccc(C#N)c(O)[n]1

> <preferred_name>
3-Pyridinecarbonitrile, 1,2-dihydro-6-methyl-2-oxo-

> <dsstox_substance_id>
DTXSID4063375

> <dsstox_compound_id>
DTXCID2040109

> <qc_level>
Public_High

> <Canonical_QSARr>
CC1=CC=C(C#N)C(O)=N1

> <InChI_Code_QSARr>
InChI=1S/C7H6N2O/c1-5-2-3-6(4-8)7(10)9-5/h2-3H,1H3,(H,9,10)

> <InChI Key_QSARr>
FIMGYEKEYXUTGD-UHFFFAOYSA-N

> <Salt_Solvent>


> <Salt_Solvent_ID>
0

> <MPID>
101193

> <Tr_1_Tst_0>
1

> <Ready_Biodeg>
1.0

$$$$
Row1159
  Mrv171c012251911052D          

 12 13  0  0  0  0            999 V2000
    1.1270    1.1270    0.0000 O   0  0  0  0  0  0  0  0  0  0  0  0
    0.3020    1.1270    0.0000 C   0  0  0  0  0  0  0  0  0  0  0  0
   -0.1105    0.4125    0.0000 C   0  0  0  0  0  0  0  0  0  0  0  0
   -0.9355    0.4125    0.0000 C   0  0  0  0  0  0  0  0  0  0  0  0
    0.3020   -0.3020    0.0000 C   0  0  0  0  0  0  0  0  0  0  0  0
    1.1270   -0.3020    0.0000 O   0  0  0  0  0  0  0  0  0  0  0  0
    1.5395    0.4125    0.0000 C   0  0  0  0  0  0  0  0  0  0  0  0
    1.9520   -0.3020    0.0000 O   0  0  0  0  0  0  0  0  0  0  0  0
    2.7770   -0.3020    0.0000 C   0  0  0  0  0  0  0  0  0  0  0  0
    3.1895    0.4125    0.0000 C   0  0  0  0  0  0  0  0  0  0  0  0
    2.7770    1.1270    0.0000 C   0  0  0  0  0  0  0  0  0  0  0  0
    1.9520    1.1270    0.0000 O   0  0  0  0  0  0  0  0  0  0  0  0
  2  1  1  0  0  0  0
  3  2  1  0  0  0  0
  3  4  2  0  0  0  0
  5  3  1  0  0  0  0
  6  5  1  0  0  0  0
  7  6  1  0  0  0  0
  1  7  1  0  0  0  0
  8  7  1  0  0  0  0
  9  8  1  0  0  0  0
 10  9  1  0  0  0  0
 11 10  1  0  0  0  0
 12 11  1  0  0  0  0
  7 12  1  0  0  0  0
M  END
> <ChemID>
101243

> <CAS>
57516-73-1

> <Original_SMILES>
C=C1COC2(OC1)OCCCO2

> <preferred_name>
1,5,7,11-Tetraoxaspiro[5.5]undecane, 3-methylene-

> <dsstox_substance_id>
DTXSID4069187

> <dsstox_compound_id>
DTXCID7042229

> <qc_level>
Public_High

> <Canonical_QSARr>
C=C1COC2(OC1)OCCCO2

> <InChI_Code_QSARr>
InChI=1S/C8H12O4/c1-7-5-11-8(12-6-7)9-3-2-4-10-8/h1-6H2

> <InChI Key_QSARr>
OGWFRFMHFVZWTI-UHFFFAOYSA-N

> <Salt_Solvent>


> <Salt_Solvent_ID>
0

> <MPID>
101194

> <Tr_1_Tst_0>
1

> <Ready_Biodeg>
0.0

$$$$
Row1160
  Mrv171c012251911052D          

 14 15  0  0  0  0            999 V2000
    3.0789    2.4888    0.0000 O   0  0  0  0  0  0  0  0  0  0  0  0
    2.3645    2.0763    0.0000 C   0  0  0  0  0  0  0  0  0  0  0  0
    1.6500    2.4888    0.0000 C   0  0  0  0  0  0  0  0  0  0  0  0
    2.3645    1.2513    0.0000 C   0  0  0  0  0  0  0  0  0  0  0  0
    1.6500    0.8388    0.0000 C   0  0  0  0  0  0  0  0  0  0  0  0
    1.6500    0.0138    0.0000 C   0  0  0  0  0  0  0  0  0  0  0  0
    2.3645   -0.3987    0.0000 C   0  0  0  0  0  0  0  0  0  0  0  0
    2.3645   -1.2237    0.0000 N   0  0  0  0  0  0  0  0  0  0  0  0
    1.6970   -1.7086    0.0000 C   0  0  0  0  0  0  0  0  0  0  0  0
    1.9520   -2.4932    0.0000 N   0  0  0  0  0  0  0  0  0  0  0  0
    2.7770   -2.4932    0.0000 C   0  0  0  0  0  0  0  0  0  0  0  0
    3.0319   -1.7086    0.0000 C   0  0  0  0  0  0  0  0  0  0  0  0
    3.0789    0.0138    0.0000 C   0  0  0  0  0  0  0  0  0  0  0  0
    3.0789    0.8388    0.0000 C   0  0  0  0  0  0  0  0  0  0  0  0
  1  2  2  0  0  0  0
  2  3  1  0  0  0  0
  2  4  1  0  0  0  0
  5  4  1  0  0  0  0
  6  5  2  0  0  0  0
  7  6  1  0  0  0  0
  7  8  1  0  0  0  0
  9  8  1  0  0  0  0
 10  9  2  0  0  0  0
 11 10  1  0  0  0  0
 12 11  2  0  0  0  0
  8 12  1  0  0  0  0
 13  7  2  0  0  0  0
 14 13  1  0  0  0  0
  4 14  2  0  0  0  0
M  END
> <ChemID>
101244

> <CAS>
10041-06-2

> <Original_SMILES>
CC(=O)c1ccc(cc1)-[n]1c[n]cc1

> <preferred_name>
Ro 22-3581

> <dsstox_substance_id>
DTXSID50143259

> <dsstox_compound_id>
DTXCID7065750

> <qc_level>
Public_Medium

> <Canonical_QSARr>
CC(=O)C1C=CC(=CC=1)N1C=NC=C1

> <InChI_Code_QSARr>
InChI=1S/C11H10N2O/c1-9(14)10-2-4-11(5-3-10)13-7-6-12-8-13/h2-8H,1H3

> <InChI Key_QSARr>
GAIQQJIMVVUTQN-UHFFFAOYSA-N

> <Salt_Solvent>


> <Salt_Solvent_ID>
0

> <MPID>
101195

> <Tr_1_Tst_0>
1

> <Ready_Biodeg>
1.0

$$$$
Row1161
  Mrv171c012251911052D          

 23 24  0  0  0  0            999 V2000
    4.8530   -1.3605    0.0000 C   0  0  0  0  0  0  0  0  0  0  0  0
    5.5675   -0.9480    0.0000 O   0  0  0  0  0  0  0  0  0  0  0  0
    5.5675   -0.1230    0.0000 C   0  0  0  0  0  0  0  0  0  0  0  0
    6.2820    0.2895    0.0000 C   0  0  0  0  0  0  0  0  0  0  0  0
    6.2820    1.1145    0.0000 C   0  0  0  0  0  0  0  0  0  0  0  0
    5.5675    1.5270    0.0000 C   0  0  0  0  0  0  0  0  0  0  0  0
    5.5675    2.3520    0.0000 C   0  0  0  0  0  0  0  0  0  0  0  0
    4.8530    2.7645    0.0000 C   0  0  0  0  0  0  0  0  0  0  0  0
    4.8530    3.5895    0.0000 C   0  0  0  0  0  0  0  0  0  0  0  0
    4.1386    4.0020    0.0000 C   0  0  0  0  0  0  0  0  0  0  0  0
    4.8530    1.1145    0.0000 C   0  0  0  0  0  0  0  0  0  0  0  0
    4.8530    0.2895    0.0000 C   0  0  0  0  0  0  0  0  0  0  0  0
    4.8530   -2.1855    0.0000 C   0  0  0  0  0  0  0  0  0  0  0  0
    4.1386   -2.5980    0.0000 C   0  0  0  0  0  0  0  0  0  0  0  0
    4.1386   -3.4230    0.0000 C   0  0  0  0  0  0  0  0  0  0  0  0
    4.8530   -3.8355    0.0000 C   0  0  0  0  0  0  0  0  0  0  0  0
    4.8530   -4.6605    0.0000 C   0  0  0  0  0  0  0  0  0  0  0  0
    5.5675   -5.0730    0.0000 C   0  0  0  0  0  0  0  0  0  0  0  0
    5.5675   -5.8980    0.0000 C   0  0  0  0  0  0  0  0  0  0  0  0
    6.2820   -6.3105    0.0000 C   0  0  0  0  0  0  0  0  0  0  0  0
    5.5675   -3.4230    0.0000 C   0  0  0  0  0  0  0  0  0  0  0  0
    5.5675   -2.5980    0.0000 C   0  0  0  0  0  0  0  0  0  0  0  0
    4.1386   -0.9480    0.0000 O   0  0  0  0  0  0  0  0  0  0  0  0
  1  2  1  0  0  0  0
  2  3  1  0  0  0  0
  4  3  1  0  0  0  0
  5  4  1  0  0  0  0
  6  5  1  0  0  0  0
  6  7  1  0  0  0  0
  7  8  1  0  0  0  0
  8  9  1  0  0  0  0
  9 10  1  0  0  0  0
 11  6  1  0  0  0  0
 12 11  1  0  0  0  0
  3 12  1  0  0  0  0
  1 13  1  0  0  0  0
 14 13  1  0  0  0  0
 15 14  1  0  0  0  0
 16 15  1  0  0  0  0
 16 17  1  0  0  0  0
 17 18  1  0  0  0  0
 18 19  1  0  0  0  0
 19 20  1  0  0  0  0
 21 16  1  0  0  0  0
 22 21  1  0  0  0  0
 13 22  1  0  0  0  0
  1 23  2  0  0  0  0
M  END
> <ChemID>
101245

> <CAS>
NOCAS_878600

> <Original_SMILES>
CCCCC1CCC(CC1)C(=O)OC1CCC(CCCC)CC1

> <preferred_name>


> <dsstox_substance_id>
DTXSID00878600

> <dsstox_compound_id>
DTXCID001016644

> <qc_level>


> <Canonical_QSARr>
CCCCC1CCC(CC1)C(=O)OC1CCC(CCCC)CC1

> <InChI_Code_QSARr>
InChI=1S/C21H38O2/c1-3-5-7-17-9-13-19(14-10-17)21(22)23-20-15-11-18(12-16-20)8-6-4-2/h17-20H,3-16H2,1-2H3

> <InChI Key_QSARr>
RZPUZPYRNRRZSC-UHFFFAOYSA-N

> <Salt_Solvent>


> <Salt_Solvent_ID>
0

> <MPID>
101196

> <Tr_1_Tst_0>
0

> <Ready_Biodeg>
1.0

$$$$
Row1162
  Mrv171c012251911052D          

 14 14  0  0  0  0            999 V2000
    3.4337   -2.5499    0.0000 N   0  0  0  0  0  0  0  0  0  0  0  0
    3.4337   -1.7249    0.0000 C   0  0  0  0  0  0  0  0  0  0  0  0
    2.7193   -1.3124    0.0000 C   0  0  0  0  0  0  0  0  0  0  0  0
    2.7193   -0.4874    0.0000 C   0  0  0  0  0  0  0  0  0  0  0  0
    3.4337   -0.0749    0.0000 O   0  0  0  0  0  0  0  0  0  0  0  0
    3.4337    0.7501    0.0000 C   0  0  0  0  0  0  0  0  0  0  0  0
    4.1482    1.1626    0.0000 C   0  0  0  0  0  0  0  0  0  0  0  0
    2.7193    1.1626    0.0000 O   0  0  0  0  0  0  0  0  0  0  0  0
    2.0048   -1.7249    0.0000 N   0  0  0  0  0  0  0  0  0  0  0  0
    2.0048   -2.5499    0.0000 C   0  0  0  0  0  0  0  0  0  0  0  0
    1.2903   -2.9624    0.0000 C   0  0  0  0  0  0  0  0  0  0  0  0
    0.5759   -3.3749    0.0000 N   0  0  0  0  0  0  0  0  0  0  0  0
    2.7193   -2.9624    0.0000 C   0  0  0  0  0  0  0  0  0  0  0  0
    2.7193   -3.7874    0.0000 N   0  0  0  0  0  0  0  0  0  0  0  0
  2  1  1  0  0  0  0
  3  2  2  0  0  0  0
  3  4  1  0  0  0  0
  4  5  1  0  0  0  0
  5  6  1  0  0  0  0
  6  7  1  0  0  0  0
  6  8  2  0  0  0  0
  9  3  1  0  0  0  0
 10  9  2  0  0  0  0
 10 11  1  0  0  0  0
 11 12  3  0  0  0  0
 13 10  1  0  0  0  0
  1 13  2  0  0  0  0
 13 14  1  0  0  0  0
M  END
> <ChemID>
101246

> <CAS>
NOCAS_879385

> <Original_SMILES>
CC(=O)OCc1c[n]c(N)c(C#N)[n]1

> <preferred_name>


> <dsstox_substance_id>
DTXSID10879385

> <dsstox_compound_id>
DTXCID701017398

> <qc_level>


> <Canonical_QSARr>
CC(=O)OCC1=CN=C(N)C(C#N)=N1

> <InChI_Code_QSARr>
InChI=1S/C8H8N4O2/c1-5(13)14-4-6-3-11-8(10)7(2-9)12-6/h3H,4H2,1H3,(H2,10,11)

> <InChI Key_QSARr>
IMLOZVNPFFXWAQ-UHFFFAOYSA-N

> <Salt_Solvent>


> <Salt_Solvent_ID>
0

> <MPID>
101197

> <Tr_1_Tst_0>
1

> <Ready_Biodeg>
1.0

$$$$
Row1163
  Mrv171c012251911052D          

 11 10  0  0  0  0            999 V2000
    2.0929    0.6188    0.0000 O   0  0  0  0  0  0  0  0  0  0  0  0
    2.8074    0.2063    0.0000 C   0  0  0  0  0  0  0  0  0  0  0  0
    3.5219    0.6188    0.0000 C   0  0  0  0  0  0  0  0  0  0  0  0
    4.2364    0.2063    0.0000 C   0  0  0  0  0  0  0  0  0  0  0  0
    4.9508    0.6188    0.0000 C   0  0  0  0  0  0  0  0  0  0  0  0
    5.6653    0.2063    0.0000 C   0  0  0  0  0  0  0  0  0  0  0  0
    6.3798    0.6188    0.0000 C   0  0  0  0  0  0  0  0  0  0  0  0
    7.0942    0.2063    0.0000 N   0  3  0  0  0  0  0  0  0  0  0  0
    7.8087    0.6188    0.0000 O   0  0  0  0  0  0  0  0  0  0  0  0
    7.0942   -0.6187    0.0000 O   0  5  0  0  0  0  0  0  0  0  0  0
    2.8074   -0.6187    0.0000 O   0  0  0  0  0  0  0  0  0  0  0  0
  1  2  1  0  0  0  0
  2  3  1  0  0  0  0
  3  4  1  0  0  0  0
  4  5  1  0  0  0  0
  5  6  1  0  0  0  0
  6  7  1  0  0  0  0
  7  8  1  0  0  0  0
  8  9  2  0  0  0  0
  8 10  1  0  0  0  0
  2 11  2  0  0  0  0
M  CHG  2   8   1  10  -1
M  END
> <ChemID>
101248

> <CAS>
10269-96-2

> <Original_SMILES>
[O-][N+](=O)CCCCCC(O)=O

> <preferred_name>
6-Nitrohexanoic acid

> <dsstox_substance_id>
DTXSID30399010

> <dsstox_compound_id>
DTXCID40349869

> <qc_level>
Public_Low

> <Canonical_QSARr>
[O-][N+](=O)CCCCCC(O)=O

> <InChI_Code_QSARr>
InChI=1S/C6H11NO4/c8-6(9)4-2-1-3-5-7(10)11/h1-5H2,(H,8,9)

> <InChI Key_QSARr>
RDMHCTBEKVBKLF-UHFFFAOYSA-N

> <Salt_Solvent>


> <Salt_Solvent_ID>
0

> <MPID>
101198

> <Tr_1_Tst_0>
1

> <Ready_Biodeg>
1.0

$$$$
Row1164
  Mrv171c012251911052D          

 11 10  0  0  0  0            999 V2000
    3.5410    1.5515    0.0000 O   0  0  0  0  0  0  0  0  0  0  0  0
    3.9535    2.2660    0.0000 C   0  0  0  0  0  0  0  0  0  0  0  0
    3.9535    0.8370    0.0000 C   0  0  0  0  0  0  0  0  0  0  0  0
    3.5410    0.1225    0.0000 C   0  0  0  0  0  0  0  0  0  0  0  0
    3.9535   -0.5919    0.0000 C   0  0  0  0  0  0  0  0  0  0  0  0
    4.7785   -0.5919    0.0000 O   0  0  0  0  0  0  0  0  0  0  0  0
    3.5410   -1.3064    0.0000 O   0  0  0  0  0  0  0  0  0  0  0  0
    3.9535   -2.0209    0.0000 C   0  0  0  0  0  0  0  0  0  0  0  0
    2.7160    0.1225    0.0000 C   0  0  0  0  0  0  0  0  0  0  0  0
    2.3035    0.8370    0.0000 C   0  0  0  0  0  0  0  0  0  0  0  0
    4.7785    0.8370    0.0000 O   0  0  0  0  0  0  0  0  0  0  0  0
  1  2  1  0  0  0  0
  1  3  1  0  0  0  0
  3  4  1  0  0  0  0
  4  5  1  0  0  0  0
  5  6  2  0  0  0  0
  5  7  1  0  0  0  0
  7  8  1  0  0  0  0
  4  9  2  0  0  0  0
  9 10  1  0  0  0  0
  3 11  2  0  0  0  0
M  END
> <ChemID>
101251

> <CAS>
17041-60-0

> <Original_SMILES>
CC=C(C(=O)OC)C(=O)OC

> <preferred_name>
Dimethyl ethylidenemalonate

> <dsstox_substance_id>
DTXSID10342362

> <dsstox_compound_id>
DTXCID70293442

> <qc_level>
Public_Low

> <Canonical_QSARr>
CC=C(C(=O)OC)C(=O)OC

> <InChI_Code_QSARr>
InChI=1S/C7H10O4/c1-4-5(6(8)10-2)7(9)11-3/h4H,1-3H3

> <InChI Key_QSARr>
FRCFZWCJSXQAMQ-UHFFFAOYSA-N

> <Salt_Solvent>


> <Salt_Solvent_ID>
0

> <MPID>
101199

> <Tr_1_Tst_0>
1

> <Ready_Biodeg>
1.0

$$$$
Row1165
  Mrv171c012251911052D          

  9  8  0  0  0  0            999 V2000
    2.3641   -0.2521    0.0000 O   0  0  0  0  0  0  0  0  0  0  0  0
    1.6496    0.1604    0.0000 C   0  0  0  0  0  0  0  0  0  0  0  0
    3.0786    0.1604    0.0000 C   0  0  0  0  0  0  0  0  0  0  0  0
    3.7930   -0.2521    0.0000 C   0  0  0  0  0  0  0  0  0  0  0  0
    4.5075    0.1604    0.0000 C   0  0  0  0  0  0  0  0  0  0  0  0
    5.2220   -0.2521    0.0000 N   0  3  0  0  0  0  0  0  0  0  0  0
    5.9365    0.1604    0.0000 O   0  0  0  0  0  0  0  0  0  0  0  0
    5.2220   -1.0771    0.0000 O   0  5  0  0  0  0  0  0  0  0  0  0
    3.0786    0.9854    0.0000 O   0  0  0  0  0  0  0  0  0  0  0  0
  1  2  1  0  0  0  0
  1  3  1  0  0  0  0
  3  4  1  0  0  0  0
  4  5  1  0  0  0  0
  5  6  1  0  0  0  0
  6  7  2  0  0  0  0
  6  8  1  0  0  0  0
  3  9  2  0  0  0  0
M  CHG  2   6   1   8  -1
M  END
> <ChemID>
101255

> <CAS>
20497-95-4

> <Original_SMILES>
COC(=O)CC[N+]([O-])=O

> <preferred_name>
Methyl 3-nitropropanoate

> <dsstox_substance_id>
DTXSID40338238

> <dsstox_compound_id>
DTXCID70289325

> <qc_level>
Public_Low

> <Canonical_QSARr>
COC(=O)CC[N+]([O-])=O

> <InChI_Code_QSARr>
InChI=1S/C4H7NO4/c1-9-4(6)2-3-5(7)8/h2-3H2,1H3

> <InChI Key_QSARr>
PVOVDKWDSQCJAA-UHFFFAOYSA-N

> <Salt_Solvent>


> <Salt_Solvent_ID>
0

> <MPID>
101200

> <Tr_1_Tst_0>
0

> <Ready_Biodeg>
1.0

$$$$
Row1166
  Mrv171c012251911052D          

 19 20  0  0  0  0            999 V2000
    4.0216   -2.1464    0.0000 N   0  0  0  0  0  0  0  0  0  0  0  0
    4.7361   -2.5589    0.0000 C   0  0  0  0  0  0  0  0  0  0  0  0
    5.4506   -2.1464    0.0000 C   0  0  0  0  0  0  0  0  0  0  0  0
    6.1650   -2.5589    0.0000 C   0  0  0  0  0  0  0  0  0  0  0  0
    6.8795   -2.1464    0.0000 C   0  0  0  0  0  0  0  0  0  0  0  0
    7.5940   -2.5589    0.0000 C   0  0  0  0  0  0  0  0  0  0  0  0
    3.2679   -2.4819    0.0000 C   0  0  0  0  0  0  0  0  0  0  0  0
    3.0964   -3.2889    0.0000 O   0  0  0  0  0  0  0  0  0  0  0  0
    2.7159   -1.8688    0.0000 C   0  0  0  0  0  0  0  0  0  0  0  0
    1.8909   -1.8688    0.0000 C   0  0  0  0  0  0  0  0  0  0  0  0
    1.4784   -1.1544    0.0000 C   0  0  0  0  0  0  0  0  0  0  0  0
    0.6534   -1.1544    0.0000 N   0  3  0  0  0  0  0  0  0  0  0  0
    0.2409   -1.8688    0.0000 O   0  0  0  0  0  0  0  0  0  0  0  0
    0.2409   -0.4399    0.0000 O   0  5  0  0  0  0  0  0  0  0  0  0
    1.8909   -0.4399    0.0000 C   0  0  0  0  0  0  0  0  0  0  0  0
    2.7159   -0.4399    0.0000 C   0  0  0  0  0  0  0  0  0  0  0  0
    3.1284   -1.1544    0.0000 C   0  0  0  0  0  0  0  0  0  0  0  0
    3.9354   -1.3259    0.0000 C   0  0  0  0  0  0  0  0  0  0  0  0
    4.5485   -0.7738    0.0000 O   0  0  0  0  0  0  0  0  0  0  0  0
  1  2  1  0  0  0  0
  2  3  1  0  0  0  0
  3  4  1  0  0  0  0
  4  5  1  0  0  0  0
  5  6  1  0  0  0  0
  7  1  1  0  0  0  0
  7  8  2  0  0  0  0
  9  7  1  0  0  0  0
  9 10  1  0  0  0  0
 10 11  2  0  0  0  0
 11 12  1  0  0  0  0
 12 13  2  0  0  0  0
 12 14  1  0  0  0  0
 11 15  1  0  0  0  0
 15 16  2  0  0  0  0
 16 17  1  0  0  0  0
 17  9  2  0  0  0  0
 18 17  1  0  0  0  0
  1 18  1  0  0  0  0
 18 19  2  0  0  0  0
M  CHG  2  12   1  14  -1
M  END
> <ChemID>
101259

> <CAS>
NOCAS_877178

> <Original_SMILES>
CCCCCN1C(=O)c2cc(ccc2C1=O)[N+]([O-])=O

> <preferred_name>


> <dsstox_substance_id>
DTXSID00877178

> <dsstox_compound_id>
DTXCID001015260

> <qc_level>


> <Canonical_QSARr>
CCCCCN1C(=O)C2C=C(C=CC=2C1=O)[N+]([O-])=O

> <InChI_Code_QSARr>
InChI=1S/C13H14N2O4/c1-2-3-4-7-14-12(16)10-6-5-9(15(18)19)8-11(10)13(14)17/h5-6,8H,2-4,7H2,1H3

> <InChI Key_QSARr>
YBYOSGVATNOPQS-UHFFFAOYSA-N

> <Salt_Solvent>


> <Salt_Solvent_ID>
0

> <MPID>
101201

> <Tr_1_Tst_0>
1

> <Ready_Biodeg>
1.0

$$$$
Row1167
  Mrv171c012251911052D          

 12 12  0  0  0  0            999 V2000
    1.9478    0.0536    0.0000 O   0  0  0  0  0  0  0  0  0  0  0  0
    1.2333   -0.3589    0.0000 C   0  0  0  0  0  0  0  0  0  0  0  0
    0.5188    0.0536    0.0000 C   0  0  0  0  0  0  0  0  0  0  0  0
   -0.1956   -0.3589    0.0000 C   0  0  0  0  0  0  0  0  0  0  0  0
    2.6622   -0.3589    0.0000 C   0  0  0  0  0  0  0  0  0  0  0  0
    3.3767    0.0536    0.0000 N   0  0  0  0  0  0  0  0  0  0  0  0
    4.0912   -0.3589    0.0000 C   0  0  0  0  0  0  0  0  0  0  0  0
    4.8057    0.0536    0.0000 C   0  0  0  0  0  0  0  0  0  0  0  0
    4.8057    0.8786    0.0000 N   0  0  0  0  0  0  0  0  0  0  0  0
    4.0912    1.2911    0.0000 C   0  0  0  0  0  0  0  0  0  0  0  0
    3.3767    0.8786    0.0000 C   0  0  0  0  0  0  0  0  0  0  0  0
    2.6622   -1.1839    0.0000 O   0  0  0  0  0  0  0  0  0  0  0  0
  1  2  1  0  0  0  0
  2  3  1  0  0  0  0
  3  4  1  0  0  0  0
  1  5  1  0  0  0  0
  5  6  1  0  0  0  0
  7  6  1  0  0  0  0
  8  7  1  0  0  0  0
  9  8  1  0  0  0  0
 10  9  1  0  0  0  0
 11 10  1  0  0  0  0
  6 11  1  0  0  0  0
  5 12  2  0  0  0  0
M  END
> <ChemID>
101260

> <CAS>
37008-22-3

> <Original_SMILES>
CCCOC(=O)N1CCNCC1

> <preferred_name>
PUBCHEM_22393735

> <dsstox_substance_id>
DTXSID60625410

> <dsstox_compound_id>
DTXCID90576163

> <qc_level>
Public_Low

> <Canonical_QSARr>
CCCOC(=O)N1CCNCC1

> <InChI_Code_QSARr>
InChI=1S/C8H16N2O2/c1-2-7-12-8(11)10-5-3-9-4-6-10/h9H,2-7H2,1H3

> <InChI Key_QSARr>
IGXBNWXKQPCCCJ-UHFFFAOYSA-N

> <Salt_Solvent>


> <Salt_Solvent_ID>
0

> <MPID>
101202

> <Tr_1_Tst_0>
1

> <Ready_Biodeg>
1.0

$$$$
Row1168
  Mrv171c012251911052D          

 32 33  0  0  0  0            999 V2000
    4.5681   -1.7493    0.0000 C   0  0  0  0  0  0  0  0  0  0  0  0
    5.2826   -1.3368    0.0000 C   0  0  0  0  0  0  0  0  0  0  0  0
    5.2826   -0.5118    0.0000 C   0  0  0  0  0  0  0  0  0  0  0  0
    4.5681   -0.0993    0.0000 C   0  0  0  0  0  0  0  0  0  0  0  0
    4.5681    0.7257    0.0000 C   0  0  0  0  0  0  0  0  0  0  0  0
    3.8536    1.1382    0.0000 O   0  0  0  0  0  0  0  0  0  0  0  0
    3.8536    1.9632    0.0000 C   0  0  0  0  0  0  0  0  0  0  0  0
    3.1392    2.3757    0.0000 C   0  0  0  0  0  0  0  0  0  0  0  0
    5.2826    1.1382    0.0000 O   0  0  0  0  0  0  0  0  0  0  0  0
    3.8536   -0.5118    0.0000 C   0  0  0  0  0  0  0  0  0  0  0  0
    3.1392   -0.0993    0.0000 C   0  0  0  0  0  0  0  0  0  0  0  0
    2.4247   -0.5118    0.0000 O   0  0  0  0  0  0  0  0  0  0  0  0
    2.4247   -1.3368    0.0000 C   0  0  0  0  0  0  0  0  0  0  0  0
    1.7102   -1.7493    0.0000 C   0  0  0  0  0  0  0  0  0  0  0  0
    3.1392    0.7257    0.0000 O   0  0  0  0  0  0  0  0  0  0  0  0
    3.8536   -1.3368    0.0000 C   0  0  0  0  0  0  0  0  0  0  0  0
    4.5681   -2.5743    0.0000 C   0  0  0  0  0  0  0  0  0  0  0  0
    3.8536   -2.9868    0.0000 C   0  0  0  0  0  0  0  0  0  0  0  0
    3.8536   -3.8118    0.0000 C   0  0  0  0  0  0  0  0  0  0  0  0
    4.5681   -4.2243    0.0000 C   0  0  0  0  0  0  0  0  0  0  0  0
    4.5681   -5.0493    0.0000 C   0  0  0  0  0  0  0  0  0  0  0  0
    5.2826   -5.4618    0.0000 O   0  0  0  0  0  0  0  0  0  0  0  0
    5.2826   -6.2868    0.0000 C   0  0  0  0  0  0  0  0  0  0  0  0
    5.9970   -6.6993    0.0000 C   0  0  0  0  0  0  0  0  0  0  0  0
    3.8536   -5.4618    0.0000 O   0  0  0  0  0  0  0  0  0  0  0  0
    5.2826   -3.8118    0.0000 C   0  0  0  0  0  0  0  0  0  0  0  0
    5.9970   -4.2243    0.0000 C   0  0  0  0  0  0  0  0  0  0  0  0
    6.7115   -3.8118    0.0000 O   0  0  0  0  0  0  0  0  0  0  0  0
    6.7115   -2.9868    0.0000 C   0  0  0  0  0  0  0  0  0  0  0  0
    7.4260   -2.5743    0.0000 C   0  0  0  0  0  0  0  0  0  0  0  0
    5.9970   -5.0493    0.0000 O   0  0  0  0  0  0  0  0  0  0  0  0
    5.2826   -2.9868    0.0000 C   0  0  0  0  0  0  0  0  0  0  0  0
  2  1  1  0  0  0  0
  3  2  2  0  0  0  0
  4  3  1  0  0  0  0
  4  5  1  0  0  0  0
  5  6  1  0  0  0  0
  6  7  1  0  0  0  0
  7  8  1  0  0  0  0
  5  9  2  0  0  0  0
 10  4  2  0  0  0  0
 10 11  1  0  0  0  0
 11 12  1  0  0  0  0
 12 13  1  0  0  0  0
 13 14  1  0  0  0  0
 11 15  2  0  0  0  0
 16 10  1  0  0  0  0
  1 16  2  0  0  0  0
  1 17  1  0  0  0  0
 18 17  1  0  0  0  0
 19 18  2  0  0  0  0
 20 19  1  0  0  0  0
 20 21  1  0  0  0  0
 21 22  1  0  0  0  0
 22 23  1  0  0  0  0
 23 24  1  0  0  0  0
 21 25  2  0  0  0  0
 26 20  2  0  0  0  0
 26 27  1  0  0  0  0
 27 28  1  0  0  0  0
 28 29  1  0  0  0  0
 29 30  1  0  0  0  0
 27 31  2  0  0  0  0
 32 26  1  0  0  0  0
 17 32  2  0  0  0  0
M  END
> <ChemID>
101263

> <CAS>
BioUlt-30-3

> <Original_SMILES>
CCOC(=O)c1ccc(cc1C(=O)OCC)-c1cc(c(cc1)C(=O)OCC)C(=O)OCC

> <preferred_name>


> <dsstox_substance_id>


> <dsstox_compound_id>


> <qc_level>


> <Canonical_QSARr>
CCOC(=O)C1C=CC(=CC=1C(=O)OCC)C1=CC(=C(C=C1)C(=O)OCC)C(=O)OCC

> <InChI_Code_QSARr>
InChI=1S/C24H26O8/c1-5-29-21(25)17-11-9-15(13-19(17)23(27)31-7-3)16-10-12-18(22(26)30-6-2)20(14-16)24(28)32-8-4/h9-14H,5-8H2,1-4H3

> <InChI Key_QSARr>
BRDXNBARQIJLOG-UHFFFAOYSA-N

> <Salt_Solvent>


> <Salt_Solvent_ID>
0

> <MPID>
101203

> <Tr_1_Tst_0>
1

> <Ready_Biodeg>
1.0

$$$$
Row1169
  Mrv171c012251911052D          

 14 15  0  0  0  0            999 V2000
    3.8694    0.3476    0.0000 Br  0  0  0  0  0  0  0  0  0  0  0  0
    3.1550   -0.0649    0.0000 C   0  0  0  0  0  0  0  0  0  0  0  0
    3.1550   -0.8899    0.0000 Br  0  0  0  0  0  0  0  0  0  0  0  0
    2.4405    0.3476    0.0000 C   0  0  0  0  0  0  0  0  0  0  0  0
    2.4405    1.1726    0.0000 C   0  0  0  0  0  0  0  0  0  0  0  0
    1.7260    1.5851    0.0000 C   0  0  0  0  0  0  0  0  0  0  0  0
    1.0116    1.1726    0.0000 C   0  0  0  0  0  0  0  0  0  0  0  0
    1.0116    0.3476    0.0000 C   0  0  0  0  0  0  0  0  0  0  0  0
    1.7260   -0.0649    0.0000 C   0  0  0  0  0  0  0  0  0  0  0  0
    1.7260   -0.8899    0.0000 O   0  0  0  0  0  0  0  0  0  0  0  0
    1.0116   -1.3024    0.0000 C   0  0  0  0  0  0  0  0  0  0  0  0
    1.0116   -2.1274    0.0000 C   0  0  0  0  0  0  0  0  0  0  0  0
    0.5991   -2.8419    0.0000 C   0  0  0  0  0  0  0  0  0  0  0  0
    1.4241   -2.8419    0.0000 O   0  0  0  0  0  0  0  0  0  0  0  0
  1  2  1  0  0  0  0
  2  3  1  0  0  0  0
  2  4  1  0  0  0  0
  5  4  2  0  0  0  0
  6  5  1  0  0  0  0
  7  6  2  0  0  0  0
  8  7  1  0  0  0  0
  9  8  2  0  0  0  0
  4  9  1  0  0  0  0
  9 10  1  0  0  0  0
 10 11  1  0  0  0  0
 11 12  1  0  0  0  0
 13 12  1  0  0  0  0
 14 13  1  0  0  0  0
 12 14  1  0  0  0  0
M  END
> <ChemID>
201273

> <CAS>
NOCAS_865529

> <Original_SMILES>
BrC(Br)c1ccccc1OCC1CO1

> <preferred_name>


> <dsstox_substance_id>
DTXSID90865529

> <dsstox_compound_id>
DTXCID30813928

> <qc_level>


> <Canonical_QSARr>
BrC(Br)C1=CC=CC=C1OCC1CO1

> <InChI_Code_QSARr>
InChI=1S/C10H10Br2O2/c11-10(12)8-3-1-2-4-9(8)14-6-7-5-13-7/h1-4,7,10H,5-6H2

> <InChI Key_QSARr>
RUBIQRSGTVJYHR-UHFFFAOYSA-N

> <Salt_Solvent>


> <Salt_Solvent_ID>
0

> <MPID>
101204

> <Tr_1_Tst_0>
1

> <Ready_Biodeg>
0.0

$$$$
Row1170
  Mrv171c012251911052D          

 12 12  0  0  0  0            999 V2000
    1.2049   -2.4142    0.0000 Br  0  0  0  0  0  0  0  0  0  0  0  0
    0.6215   -1.8309    0.0000 C   0  0  0  0  0  0  0  0  0  0  0  0
    0.9372   -1.0687    0.0000 C   0  0  0  0  0  0  0  0  0  0  0  0
    0.6215   -0.3065    0.0000 C   0  0  0  0  0  0  0  0  0  0  0  0
   -0.1407    0.0092    0.0000 C   0  0  0  0  0  0  0  0  0  0  0  0
   -0.1407    0.8342    0.0000 Br  0  0  0  0  0  0  0  0  0  0  0  0
   -0.9029   -0.3065    0.0000 C   0  0  0  0  0  0  0  0  0  0  0  0
   -1.4863    0.2769    0.0000 Br  0  0  0  0  0  0  0  0  0  0  0  0
   -1.2186   -1.0687    0.0000 C   0  0  0  0  0  0  0  0  0  0  0  0
   -0.9029   -1.8309    0.0000 C   0  0  0  0  0  0  0  0  0  0  0  0
   -0.1407   -2.1466    0.0000 C   0  0  0  0  0  0  0  0  0  0  0  0
   -0.1407   -2.9716    0.0000 Br  0  0  0  0  0  0  0  0  0  0  0  0
  1  2  1  0  0  0  0
  3  2  1  0  0  0  0
  4  3  1  0  0  0  0
  5  4  1  0  0  0  0
  5  6  1  0  0  0  0
  7  5  1  0  0  0  0
  7  8  1  0  0  0  0
  9  7  1  0  0  0  0
 10  9  1  0  0  0  0
 11 10  1  0  0  0  0
  2 11  1  0  0  0  0
 11 12  1  0  0  0  0
M  END
> <ChemID>
201275

> <CAS>
3194-57-8

> <Original_SMILES>
BrC1CCC(Br)C(Br)CCC1Br

> <preferred_name>
Tetrabromocyclooctane

> <dsstox_substance_id>
DTXSID0052750

> <dsstox_compound_id>
DTXCID5031260

> <qc_level>


> <Canonical_QSARr>
BrC1CCC(Br)C(Br)CCC1Br

> <InChI_Code_QSARr>
InChI=1S/C8H12Br4/c9-5-1-2-6(10)8(12)4-3-7(5)11/h5-8H,1-4H2

> <InChI Key_QSARr>
RZLXIANUDLLFHN-UHFFFAOYSA-N

> <Salt_Solvent>


> <Salt_Solvent_ID>
0

> <MPID>
101205

> <Tr_1_Tst_0>
1

> <Ready_Biodeg>
0.0

$$$$
Row1171
  Mrv171c012251911052D          

  5  4  0  0  0  0            999 V2000
    1.0725   -0.7145    0.0000 Br  0  0  0  0  0  0  0  0  0  0  0  0
    0.6600   -0.0000    0.0000 C   0  0  0  0  0  0  0  0  0  0  0  0
   -0.1650   -0.0000    0.0000 C   0  0  0  0  0  0  0  0  0  0  0  0
   -0.5775    0.7145    0.0000 C   0  0  0  0  0  0  0  0  0  0  0  0
   -1.4025    0.7145    0.0000 Br  0  0  0  0  0  0  0  0  0  0  0  0
  1  2  1  0  0  0  0
  2  3  1  0  0  0  0
  3  4  1  0  0  0  0
  4  5  1  0  0  0  0
M  END
> <ChemID>
201279

> <CAS>
109-64-8

> <Original_SMILES>
BrCCCBr

> <preferred_name>
1,3-Dibromopropane

> <dsstox_substance_id>
DTXSID1021902

> <dsstox_compound_id>
DTXCID701902

> <qc_level>


> <Canonical_QSARr>
BrCCCBr

> <InChI_Code_QSARr>
InChI=1S/C3H6Br2/c4-2-1-3-5/h1-3H2

> <InChI Key_QSARr>
VEFLKXRACNJHOV-UHFFFAOYSA-N

> <Salt_Solvent>


> <Salt_Solvent_ID>
0

> <MPID>
101206

> <Tr_1_Tst_0>
1

> <Ready_Biodeg>
0.0

$$$$
Row1172
  Mrv171c012251911052D          

 19 20  0  0  0  0            999 V2000
    1.1246    0.4761    0.0000 Br  0  0  0  0  0  0  0  0  0  0  0  0
    0.4101    0.8886    0.0000 C   0  0  0  0  0  0  0  0  0  0  0  0
    0.4101    1.7136    0.0000 C   0  0  0  0  0  0  0  0  0  0  0  0
   -0.3044    2.1261    0.0000 C   0  0  0  0  0  0  0  0  0  0  0  0
   -0.3044    2.9511    0.0000 Br  0  0  0  0  0  0  0  0  0  0  0  0
   -1.0188    1.7136    0.0000 C   0  0  0  0  0  0  0  0  0  0  0  0
   -1.7333    2.1261    0.0000 Br  0  0  0  0  0  0  0  0  0  0  0  0
   -1.0188    0.8886    0.0000 C   0  0  0  0  0  0  0  0  0  0  0  0
   -1.7333    0.4761    0.0000 O   0  0  0  0  0  0  0  0  0  0  0  0
   -1.7333   -0.3489    0.0000 C   0  0  0  0  0  0  0  0  0  0  0  0
   -2.4478   -0.7614    0.0000 C   0  0  0  0  0  0  0  0  0  0  0  0
   -2.4478   -1.5864    0.0000 C   0  0  0  0  0  0  0  0  0  0  0  0
   -1.7333   -1.9989    0.0000 C   0  0  0  0  0  0  0  0  0  0  0  0
   -1.7333   -2.8239    0.0000 Br  0  0  0  0  0  0  0  0  0  0  0  0
   -1.0188   -1.5864    0.0000 C   0  0  0  0  0  0  0  0  0  0  0  0
   -0.3044   -1.9989    0.0000 Br  0  0  0  0  0  0  0  0  0  0  0  0
   -1.0188   -0.7614    0.0000 C   0  0  0  0  0  0  0  0  0  0  0  0
   -0.3044   -0.3489    0.0000 Br  0  0  0  0  0  0  0  0  0  0  0  0
   -0.3044    0.4761    0.0000 C   0  0  0  0  0  0  0  0  0  0  0  0
  1  2  1  0  0  0  0
  3  2  2  0  0  0  0
  4  3  1  0  0  0  0
  4  5  1  0  0  0  0
  6  4  2  0  0  0  0
  6  7  1  0  0  0  0
  8  6  1  0  0  0  0
  8  9  1  0  0  0  0
  9 10  1  0  0  0  0
 11 10  2  0  0  0  0
 12 11  1  0  0  0  0
 13 12  2  0  0  0  0
 13 14  1  0  0  0  0
 15 13  1  0  0  0  0
 15 16  1  0  0  0  0
 17 15  2  0  0  0  0
 10 17  1  0  0  0  0
 17 18  1  0  0  0  0
 19  8  2  0  0  0  0
  2 19  1  0  0  0  0
M  END
> <ChemID>
201283

> <CAS>
36483-60-0

> <Original_SMILES>
Brc1cc(Oc2ccc(Br)c(Br)c2Br)c(Br)c(Br)c1

> <preferred_name>
Hexabromodiphenyl ether

> <dsstox_substance_id>
DTXSID6024129

> <dsstox_compound_id>
DTXCID701323313

> <qc_level>


> <Canonical_QSARr>
BrC1C=C(Br)C=C(OC2=CC=C(Br)C(Br)=C2Br)C=1Br

> <InChI_Code_QSARr>
InChI=1S/C12H4Br6O/c13-5-3-7(15)10(16)9(4-5)19-8-2-1-6(14)11(17)12(8)18/h1-4H

> <InChI Key_QSARr>
YURCHLXPAGSJHU-UHFFFAOYSA-N

> <Salt_Solvent>


> <Salt_Solvent_ID>
0

> <MPID>
101207

> <Tr_1_Tst_0>
1

> <Ready_Biodeg>
0.0

$$$$
Row1173
  Mrv171c012251911052D          

 13 14  0  0  0  0            999 V2000
   -0.1904   -2.6654    0.0000 Br  0  0  0  0  0  0  0  0  0  0  0  0
   -0.1904   -1.8404    0.0000 C   0  0  0  0  0  0  0  0  0  0  0  0
    0.5241   -1.4279    0.0000 C   0  0  0  0  0  0  0  0  0  0  0  0
    0.5241   -0.6029    0.0000 C   0  0  0  0  0  0  0  0  0  0  0  0
   -0.1904   -0.1904    0.0000 C   0  0  0  0  0  0  0  0  0  0  0  0
   -0.1904    0.6346    0.0000 C   0  0  0  0  0  0  0  0  0  0  0  0
    0.5241    1.0471    0.0000 C   0  0  0  0  0  0  0  0  0  0  0  0
    0.5241    1.8721    0.0000 C   0  0  0  0  0  0  0  0  0  0  0  0
   -0.1904    2.2846    0.0000 C   0  0  0  0  0  0  0  0  0  0  0  0
   -0.9049    1.8721    0.0000 C   0  0  0  0  0  0  0  0  0  0  0  0
   -0.9049    1.0471    0.0000 C   0  0  0  0  0  0  0  0  0  0  0  0
   -0.9049   -0.6029    0.0000 C   0  0  0  0  0  0  0  0  0  0  0  0
   -0.9049   -1.4279    0.0000 C   0  0  0  0  0  0  0  0  0  0  0  0
  1  2  1  0  0  0  0
  3  2  2  0  0  0  0
  4  3  1  0  0  0  0
  5  4  2  0  0  0  0
  5  6  1  0  0  0  0
  7  6  2  0  0  0  0
  8  7  1  0  0  0  0
  9  8  2  0  0  0  0
 10  9  1  0  0  0  0
 11 10  2  0  0  0  0
  6 11  1  0  0  0  0
 12  5  1  0  0  0  0
 13 12  2  0  0  0  0
  2 13  1  0  0  0  0
M  END
> <ChemID>
201286

> <CAS>
92-66-0

> <Original_SMILES>
Brc1ccc(cc1)-c1ccccc1

> <preferred_name>
4-Bromobiphenyl

> <dsstox_substance_id>
DTXSID4024640

> <dsstox_compound_id>
DTXCID804640

> <qc_level>


> <Canonical_QSARr>
BrC1C=CC(=CC=1)C1C=CC=CC=1

> <InChI_Code_QSARr>
InChI=1S/C12H9Br/c13-12-8-6-11(7-9-12)10-4-2-1-3-5-10/h1-9H

> <InChI Key_QSARr>
PKJBWOWQJHHAHG-UHFFFAOYSA-N

> <Salt_Solvent>


> <Salt_Solvent_ID>
0

> <MPID>
101208

> <Tr_1_Tst_0>
1

> <Ready_Biodeg>
1.0

$$$$
Row1174
  Mrv171c012251911052D          

 15 17  0  0  0  0            999 V2000
   -2.2760   -3.7219    0.0000 C   0  0  0  0  0  0  0  0  0  0  0  0
   -1.4510   -3.7219    0.0000 O   0  0  0  0  0  0  0  0  0  0  0  0
   -1.8635   -3.0074    0.0000 C   0  0  0  0  0  0  0  0  0  0  0  0
   -1.8635   -2.1824    0.0000 C   0  0  0  0  0  0  0  0  0  0  0  0
   -1.1491   -1.7699    0.0000 N   0  0  0  0  0  0  0  0  0  0  0  0
   -0.4346   -2.1824    0.0000 C   0  0  0  0  0  0  0  0  0  0  0  0
    0.2799   -1.7699    0.0000 C   0  0  0  0  0  0  0  0  0  0  0  0
    1.1049   -1.7699    0.0000 C   0  0  0  0  0  0  0  0  0  0  0  0
    0.6924   -1.0554    0.0000 O   0  0  0  0  0  0  0  0  0  0  0  0
   -1.1491   -0.9449    0.0000 C   0  0  0  0  0  0  0  0  0  0  0  0
   -0.4346   -0.5324    0.0000 C   0  0  0  0  0  0  0  0  0  0  0  0
   -0.4346    0.2926    0.0000 C   0  0  0  0  0  0  0  0  0  0  0  0
   -1.1491    0.7051    0.0000 C   0  0  0  0  0  0  0  0  0  0  0  0
   -1.8635    0.2926    0.0000 C   0  0  0  0  0  0  0  0  0  0  0  0
   -1.8635   -0.5324    0.0000 C   0  0  0  0  0  0  0  0  0  0  0  0
  2  1  1  0  0  0  0
  3  2  1  0  0  0  0
  1  3  1  0  0  0  0
  3  4  1  0  0  0  0
  4  5  1  0  0  0  0
  5  6  1  0  0  0  0
  6  7  1  0  0  0  0
  8  7  1  0  0  0  0
  9  8  1  0  0  0  0
  7  9  1  0  0  0  0
  5 10  1  0  0  0  0
 11 10  2  0  0  0  0
 12 11  1  0  0  0  0
 13 12  2  0  0  0  0
 14 13  1  0  0  0  0
 15 14  2  0  0  0  0
 10 15  1  0  0  0  0
M  END
> <ChemID>
201288

> <CAS>
2095-06-9

> <Original_SMILES>
C(C1CO1)N(CC1CO1)c1ccccc1

> <preferred_name>


> <dsstox_substance_id>
DTXSID50862832

> <dsstox_compound_id>
DTXCID70811549

> <qc_level>


> <Canonical_QSARr>
C(C1CO1)N(CC1CO1)C1C=CC=CC=1

> <InChI_Code_QSARr>
InChI=1S/C12H15NO2/c1-2-4-10(5-3-1)13(6-11-8-14-11)7-12-9-15-12/h1-5,11-12H,6-9H2

> <InChI Key_QSARr>
JAYXSROKFZAHRQ-UHFFFAOYSA-N

> <Salt_Solvent>


> <Salt_Solvent_ID>
0

> <MPID>
101209

> <Tr_1_Tst_0>
0

> <Ready_Biodeg>
0.0

$$$$
Row1175
  Mrv171c012251911052D          

 14 15  0  0  0  0            999 V2000
   -2.7734    0.9677    0.0000 C   0  0  0  0  0  0  0  0  0  0  0  0
   -3.4879    0.5552    0.0000 C   0  0  0  0  0  0  0  0  0  0  0  0
   -4.2023    0.9677    0.0000 C   0  0  0  0  0  0  0  0  0  0  0  0
   -4.9168    0.5552    0.0000 O   0  0  0  0  0  0  0  0  0  0  0  0
   -5.6313    0.9677    0.0000 C   0  0  0  0  0  0  0  0  0  0  0  0
   -6.3457    0.5552    0.0000 C   0  0  0  0  0  0  0  0  0  0  0  0
   -7.1707    0.5552    0.0000 C   0  0  0  0  0  0  0  0  0  0  0  0
   -6.7582   -0.1593    0.0000 O   0  0  0  0  0  0  0  0  0  0  0  0
   -2.0589    0.5552    0.0000 C   0  0  0  0  0  0  0  0  0  0  0  0
   -1.3444    0.9677    0.0000 O   0  0  0  0  0  0  0  0  0  0  0  0
   -0.6300    0.5552    0.0000 C   0  0  0  0  0  0  0  0  0  0  0  0
    0.0845    0.9677    0.0000 C   0  0  0  0  0  0  0  0  0  0  0  0
    0.9095    0.9677    0.0000 C   0  0  0  0  0  0  0  0  0  0  0  0
    0.4970    1.6822    0.0000 O   0  0  0  0  0  0  0  0  0  0  0  0
  1  2  1  0  0  0  0
  2  3  1  0  0  0  0
  3  4  1  0  0  0  0
  4  5  1  0  0  0  0
  5  6  1  0  0  0  0
  7  6  1  0  0  0  0
  8  7  1  0  0  0  0
  6  8  1  0  0  0  0
  1  9  1  0  0  0  0
  9 10  1  0  0  0  0
 10 11  1  0  0  0  0
 11 12  1  0  0  0  0
 13 12  1  0  0  0  0
 14 13  1  0  0  0  0
 12 14  1  0  0  0  0
M  END
> <ChemID>
201289

> <CAS>
2425-79-8

> <Original_SMILES>
C(OCCCCOCC1CO1)C1CO1

> <preferred_name>
1,4-Butanediol diglycidyl ether

> <dsstox_substance_id>
DTXSID7024667

> <dsstox_compound_id>
DTXCID204667

> <qc_level>


> <Canonical_QSARr>
C(OCCCCOCC1CO1)C1CO1

> <InChI_Code_QSARr>
InChI=1S/C10H18O4/c1(3-11-5-9-7-13-9)2-4-12-6-10-8-14-10/h9-10H,1-8H2

> <InChI Key_QSARr>
SHKUUQIDMUMQQK-UHFFFAOYSA-N

> <Salt_Solvent>


> <Salt_Solvent_ID>
0

> <MPID>
101210

> <Tr_1_Tst_0>
1

> <Ready_Biodeg>
0.0

$$$$
Row1176
  Mrv171c012251911052D          

 25 27  0  0  0  0            999 V2000
    0.1915    1.1897    0.0000 C   0  0  0  0  0  0  0  0  0  0  0  0
   -0.5230    1.6022    0.0000 O   0  0  0  0  0  0  0  0  0  0  0  0
   -0.5230    2.4272    0.0000 P   0  0  0  0  0  0  0  0  0  0  0  0
   -1.2375    2.8397    0.0000 O   0  0  0  0  0  0  0  0  0  0  0  0
   -1.9519    2.4272    0.0000 C   0  0  0  0  0  0  0  0  0  0  0  0
   -2.6664    2.8397    0.0000 C   0  0  0  0  0  0  0  0  0  0  0  0
   -2.6664    3.6647    0.0000 C   0  0  0  0  0  0  0  0  0  0  0  0
   -3.3809    4.0772    0.0000 C   0  0  0  0  0  0  0  0  0  0  0  0
   -4.0954    3.6647    0.0000 C   0  0  0  0  0  0  0  0  0  0  0  0
   -4.0954    2.8397    0.0000 C   0  0  0  0  0  0  0  0  0  0  0  0
   -3.3809    2.4272    0.0000 C   0  0  0  0  0  0  0  0  0  0  0  0
    0.1915    2.8397    0.0000 O   0  0  0  0  0  0  0  0  0  0  0  0
    0.9059    2.4272    0.0000 C   0  0  0  0  0  0  0  0  0  0  0  0
    1.6204    2.8397    0.0000 C   0  0  0  0  0  0  0  0  0  0  0  0
    2.3349    2.4272    0.0000 C   0  0  0  0  0  0  0  0  0  0  0  0
    3.0494    2.8397    0.0000 C   0  0  0  0  0  0  0  0  0  0  0  0
    3.0494    3.6647    0.0000 C   0  0  0  0  0  0  0  0  0  0  0  0
    2.3349    4.0772    0.0000 C   0  0  0  0  0  0  0  0  0  0  0  0
    1.6204    3.6647    0.0000 C   0  0  0  0  0  0  0  0  0  0  0  0
    0.1915    0.3647    0.0000 C   0  0  0  0  0  0  0  0  0  0  0  0
   -0.5230   -0.0478    0.0000 C   0  0  0  0  0  0  0  0  0  0  0  0
   -0.5230   -0.8728    0.0000 C   0  0  0  0  0  0  0  0  0  0  0  0
    0.1915   -1.2853    0.0000 C   0  0  0  0  0  0  0  0  0  0  0  0
    0.9059   -0.8728    0.0000 C   0  0  0  0  0  0  0  0  0  0  0  0
    0.9059   -0.0478    0.0000 C   0  0  0  0  0  0  0  0  0  0  0  0
  1  2  1  0  0  0  0
  2  3  1  0  0  0  0
  3  4  1  0  0  0  0
  4  5  1  0  0  0  0
  5  6  1  0  0  0  0
  7  6  2  0  0  0  0
  8  7  1  0  0  0  0
  9  8  2  0  0  0  0
 10  9  1  0  0  0  0
 11 10  2  0  0  0  0
  6 11  1  0  0  0  0
  3 12  1  0  0  0  0
 12 13  1  0  0  0  0
 13 14  1  0  0  0  0
 15 14  2  0  0  0  0
 16 15  1  0  0  0  0
 17 16  2  0  0  0  0
 18 17  1  0  0  0  0
 19 18  2  0  0  0  0
 14 19  1  0  0  0  0
  1 20  1  0  0  0  0
 21 20  2  0  0  0  0
 22 21  1  0  0  0  0
 23 22  2  0  0  0  0
 24 23  1  0  0  0  0
 25 24  2  0  0  0  0
 20 25  1  0  0  0  0
M  END
> <ChemID>
201291

> <CAS>
15205-57-9

> <Original_SMILES>
C(OP(OCc1ccccc1)OCc1ccccc1)c1ccccc1

> <preferred_name>


> <dsstox_substance_id>


> <dsstox_compound_id>


> <qc_level>


> <Canonical_QSARr>
C(OP(OCC1C=CC=CC=1)OCC1C=CC=CC=1)C1C=CC=CC=1

> <InChI_Code_QSARr>
InChI=1S/C21H21O3P/c1-4-10-19(11-5-1)16-22-25(23-17-20-12-6-2-7-13-20)24-18-21-14-8-3-9-15-21/h1-15H,16-18H2

> <InChI Key_QSARr>
KKFOMYPMTJLQGA-UHFFFAOYSA-N

> <Salt_Solvent>


> <Salt_Solvent_ID>
0

> <MPID>
101211

> <Tr_1_Tst_0>
1

> <Ready_Biodeg>
1.0

$$$$
Row1177
  Mrv171c012251911052D          

 31 36  0  0  0  0            999 V2000
   -8.4336   -0.3126    0.0000 C   0  0  0  0  0  0  0  0  0  0  0  0
   -7.6086   -0.3126    0.0000 O   0  0  0  0  0  0  0  0  0  0  0  0
   -8.0211    0.4019    0.0000 C   0  0  0  0  0  0  0  0  0  0  0  0
   -8.0211    1.2269    0.0000 C   0  0  0  0  0  0  0  0  0  0  0  0
   -7.3066    1.6394    0.0000 N   0  0  0  0  0  0  0  0  0  0  0  0
   -7.3066    2.4644    0.0000 C   0  0  0  0  0  0  0  0  0  0  0  0
   -6.5922    2.8769    0.0000 C   0  0  0  0  0  0  0  0  0  0  0  0
   -5.7672    2.8769    0.0000 C   0  0  0  0  0  0  0  0  0  0  0  0
   -6.1797    3.5914    0.0000 O   0  0  0  0  0  0  0  0  0  0  0  0
   -6.5922    1.2269    0.0000 C   0  0  0  0  0  0  0  0  0  0  0  0
   -6.5922    0.4019    0.0000 C   0  0  0  0  0  0  0  0  0  0  0  0
   -5.8777   -0.0106    0.0000 C   0  0  0  0  0  0  0  0  0  0  0  0
   -5.1632    0.4019    0.0000 C   0  0  0  0  0  0  0  0  0  0  0  0
   -4.4488   -0.0106    0.0000 C   0  0  0  0  0  0  0  0  0  0  0  0
   -3.7343    0.4019    0.0000 C   0  0  0  0  0  0  0  0  0  0  0  0
   -3.0198   -0.0106    0.0000 C   0  0  0  0  0  0  0  0  0  0  0  0
   -2.3054    0.4019    0.0000 C   0  0  0  0  0  0  0  0  0  0  0  0
   -2.3054    1.2269    0.0000 C   0  0  0  0  0  0  0  0  0  0  0  0
   -1.5909    1.6394    0.0000 N   0  0  0  0  0  0  0  0  0  0  0  0
   -0.8764    1.2269    0.0000 C   0  0  0  0  0  0  0  0  0  0  0  0
   -0.1619    1.6394    0.0000 C   0  0  0  0  0  0  0  0  0  0  0  0
    0.6631    1.6394    0.0000 C   0  0  0  0  0  0  0  0  0  0  0  0
    0.2506    2.3539    0.0000 O   0  0  0  0  0  0  0  0  0  0  0  0
   -1.5909    2.4644    0.0000 C   0  0  0  0  0  0  0  0  0  0  0  0
   -0.8764    2.8769    0.0000 C   0  0  0  0  0  0  0  0  0  0  0  0
   -0.0514    2.8769    0.0000 C   0  0  0  0  0  0  0  0  0  0  0  0
   -0.4639    3.5914    0.0000 O   0  0  0  0  0  0  0  0  0  0  0  0
   -3.0198    1.6394    0.0000 C   0  0  0  0  0  0  0  0  0  0  0  0
   -3.7343    1.2269    0.0000 C   0  0  0  0  0  0  0  0  0  0  0  0
   -5.1632    1.2269    0.0000 C   0  0  0  0  0  0  0  0  0  0  0  0
   -5.8777    1.6394    0.0000 C   0  0  0  0  0  0  0  0  0  0  0  0
  2  1  1  0  0  0  0
  3  2  1  0  0  0  0
  1  3  1  0  0  0  0
  3  4  1  0  0  0  0
  4  5  1  0  0  0  0
  5  6  1  0  0  0  0
  6  7  1  0  0  0  0
  8  7  1  0  0  0  0
  9  8  1  0  0  0  0
  7  9  1  0  0  0  0
  5 10  1  0  0  0  0
 11 10  2  0  0  0  0
 12 11  1  0  0  0  0
 13 12  2  0  0  0  0
 13 14  1  0  0  0  0
 14 15  1  0  0  0  0
 16 15  2  0  0  0  0
 17 16  1  0  0  0  0
 18 17  2  0  0  0  0
 18 19  1  0  0  0  0
 19 20  1  0  0  0  0
 20 21  1  0  0  0  0
 22 21  1  0  0  0  0
 23 22  1  0  0  0  0
 21 23  1  0  0  0  0
 19 24  1  0  0  0  0
 24 25  1  0  0  0  0
 26 25  1  0  0  0  0
 27 26  1  0  0  0  0
 25 27  1  0  0  0  0
 28 18  1  0  0  0  0
 29 28  2  0  0  0  0
 15 29  1  0  0  0  0
 30 13  1  0  0  0  0
 31 30  2  0  0  0  0
 10 31  1  0  0  0  0
M  END
> <ChemID>
201292

> <CAS>
28768-32-3

> <Original_SMILES>
C(c1ccc(cc1)N(CC1CO1)CC1CO1)c1ccc(cc1)N(CC1CO1)CC1CO1

> <preferred_name>
4,4'-Methylenebis(N,N-diglycidylaniline)

> <dsstox_substance_id>
DTXSID0042248

> <dsstox_compound_id>
DTXCID8022248

> <qc_level>


> <Canonical_QSARr>
C(C1C=CC(=CC=1)N(CC1CO1)CC1CO1)C1C=CC(=CC=1)N(CC1CO1)CC1CO1

> <InChI_Code_QSARr>
InChI=1S/C25H30N2O4/c1-5-20(26(10-22-14-28-22)11-23-15-29-23)6-2-18(1)9-19-3-7-21(8-4-19)27(12-24-16-30-24)13-25-17-31-25/h1-8,22-25H,9-17H2

> <InChI Key_QSARr>
FAUAZXVRLVIARB-UHFFFAOYSA-N

> <Salt_Solvent>


> <Salt_Solvent_ID>
0

> <MPID>
101212

> <Tr_1_Tst_0>
0

> <Ready_Biodeg>
0.0

$$$$
Row1178
  Mrv171c012251911052D          

 10 12  0  0  0  0            999 V2000
    0.5635    1.0384    0.0000 C   0  0  0  0  0  0  0  0  0  0  0  0
   -0.1510    1.4509    0.0000 C   0  0  0  0  0  0  0  0  0  0  0  0
   -0.8655    1.0384    0.0000 C   0  0  0  0  0  0  0  0  0  0  0  0
   -1.5799    0.6259    0.0000 O   0  0  0  0  0  0  0  0  0  0  0  0
   -0.8655    0.2134    0.0000 C   0  0  0  0  0  0  0  0  0  0  0  0
   -0.1510   -0.1991    0.0000 C   0  0  0  0  0  0  0  0  0  0  0  0
    0.5635    0.2134    0.0000 C   0  0  0  0  0  0  0  0  0  0  0  0
    1.2779   -0.1991    0.0000 C   0  0  0  0  0  0  0  0  0  0  0  0
    1.6904   -0.9136    0.0000 C   0  0  0  0  0  0  0  0  0  0  0  0
    2.1029   -0.1991    0.0000 O   0  0  0  0  0  0  0  0  0  0  0  0
  2  1  1  0  0  0  0
  3  2  1  0  0  0  0
  3  4  1  0  0  0  0
  4  5  1  0  0  0  0
  5  3  1  0  0  0  0
  6  5  1  0  0  0  0
  7  6  1  0  0  0  0
  1  7  1  0  0  0  0
  7  8  1  0  0  0  0
  9  8  1  0  0  0  0
 10  9  1  0  0  0  0
  8 10  1  0  0  0  0
M  END
> <ChemID>
201294

> <CAS>
106-87-6

> <Original_SMILES>
C1C2OC2CCC1C1CO1

> <preferred_name>
4-Vinyl-1-cyclohexene dioxide

> <dsstox_substance_id>
DTXSID0020604

> <dsstox_compound_id>
DTXCID80604

> <qc_level>


> <Canonical_QSARr>
C1C2OC2CCC1C1CO1

> <InChI_Code_QSARr>
InChI=1S/C8H12O2/c1-2-6-7(10-6)3-5(1)8-4-9-8/h5-8H,1-4H2

> <InChI Key_QSARr>
OECTYKWYRCHAKR-UHFFFAOYSA-N

> <Salt_Solvent>


> <Salt_Solvent_ID>
0

> <MPID>
101213

> <Tr_1_Tst_0>
1

> <Ready_Biodeg>
0.0

$$$$
Row1179
  Mrv171c012251911052D          

  9 10  0  0  0  0            999 V2000
    0.7145   -1.2375    0.0000 C   0  0  0  0  0  0  0  0  0  0  0  0
    1.4290   -0.8250    0.0000 C   0  0  0  0  0  0  0  0  0  0  0  0
    1.4290   -0.0000    0.0000 C   0  0  0  0  0  0  0  0  0  0  0  0
    0.7145    0.4125    0.0000 C   0  0  0  0  0  0  0  0  0  0  0  0
    0.0000   -0.0000    0.0000 C   0  0  0  0  0  0  0  0  0  0  0  0
   -0.7846    0.2549    0.0000 C   0  0  0  0  0  0  0  0  0  0  0  0
   -1.2695   -0.4125    0.0000 C   0  0  0  0  0  0  0  0  0  0  0  0
   -0.7846   -1.0800    0.0000 C   0  0  0  0  0  0  0  0  0  0  0  0
    0.0000   -0.8250    0.0000 C   0  0  0  0  0  0  0  0  0  0  0  0
  2  1  1  0  0  0  0
  3  2  2  0  0  0  0
  4  3  1  0  0  0  0
  5  4  1  0  0  0  0
  5  6  1  0  0  0  0
  6  7  2  0  0  0  0
  7  8  1  0  0  0  0
  8  9  1  0  0  0  0
  1  9  1  0  0  0  0
  9  5  1  0  0  0  0
M  END
> <ChemID>
201296

> <CAS>
3048-65-5

> <Original_SMILES>
C1C=CCC2C=CCC21

> <preferred_name>
3a,4,7,7a-Tetrahydroindene

> <dsstox_substance_id>
DTXSID0027515

> <dsstox_compound_id>
DTXCID007515

> <qc_level>


> <Canonical_QSARr>
C1C=CCC2C=CCC21

> <InChI_Code_QSARr>
InChI=1S/C9H12/c1-2-5-9-7-3-6-8(9)4-1/h1-3,6,8-9H,4-5,7H2

> <InChI Key_QSARr>
UFERIGCCDYCZLN-UHFFFAOYSA-N

> <Salt_Solvent>


> <Salt_Solvent_ID>
0

> <MPID>
101214

> <Tr_1_Tst_0>
0

> <Ready_Biodeg>
0.0

$$$$
Row1180
  Mrv171c012251911052D          

 18 20  0  0  0  0            999 V2000
    0.8158   -2.2797    0.0000 C   0  0  0  0  0  0  0  0  0  0  0  0
    1.5302   -2.6922    0.0000 C   0  0  0  0  0  0  0  0  0  0  0  0
    2.2447   -2.2797    0.0000 C   0  0  0  0  0  0  0  0  0  0  0  0
    2.2447   -1.4547    0.0000 C   0  0  0  0  0  0  0  0  0  0  0  0
    1.5302   -1.0422    0.0000 C   0  0  0  0  0  0  0  0  0  0  0  0
    1.5302   -0.2172    0.0000 C   0  0  0  0  0  0  0  0  0  0  0  0
    2.2447    0.1953    0.0000 C   0  0  0  0  0  0  0  0  0  0  0  0
    2.2447    1.0203    0.0000 C   0  0  0  0  0  0  0  0  0  0  0  0
    1.5302    1.4328    0.0000 C   0  0  0  0  0  0  0  0  0  0  0  0
    1.5302    2.2578    0.0000 C   0  0  0  0  0  0  0  0  0  0  0  0
    2.2447    2.6703    0.0000 C   0  0  0  0  0  0  0  0  0  0  0  0
    2.2447    3.4953    0.0000 C   0  0  0  0  0  0  0  0  0  0  0  0
    1.5302    3.9078    0.0000 C   0  0  0  0  0  0  0  0  0  0  0  0
    0.8158    3.4953    0.0000 C   0  0  0  0  0  0  0  0  0  0  0  0
    0.8158    2.6703    0.0000 C   0  0  0  0  0  0  0  0  0  0  0  0
    0.8158    1.0203    0.0000 C   0  0  0  0  0  0  0  0  0  0  0  0
    0.8158    0.1953    0.0000 C   0  0  0  0  0  0  0  0  0  0  0  0
    0.8158   -1.4547    0.0000 C   0  0  0  0  0  0  0  0  0  0  0  0
  2  1  1  0  0  0  0
  3  2  1  0  0  0  0
  4  3  2  0  0  0  0
  5  4  1  0  0  0  0
  5  6  1  0  0  0  0
  7  6  2  0  0  0  0
  8  7  1  0  0  0  0
  9  8  2  0  0  0  0
  9 10  1  0  0  0  0
 11 10  1  0  0  0  0
 12 11  1  0  0  0  0
 13 12  1  0  0  0  0
 14 13  2  0  0  0  0
 15 14  1  0  0  0  0
 10 15  1  0  0  0  0
 16  9  1  0  0  0  0
 17 16  2  0  0  0  0
  6 17  1  0  0  0  0
 18  5  1  0  0  0  0
  1 18  1  0  0  0  0
M  END
> <ChemID>
201297

> <CAS>
61788-32-7

> <Original_SMILES>
C1C=CCCC1c1ccc(cc1)C1CCCC=C1

> <preferred_name>
Terphenyl, hydrogenated

> <dsstox_substance_id>
DTXSID3028051

> <dsstox_compound_id>
DTXCID708051

> <qc_level>


> <Canonical_QSARr>
C1C=CCCC1C1=CC=C(C=C1)C1CCCC=C1

> <InChI_Code_QSARr>
InChI=1S/C18H22/c1-3-7-15(8-4-1)17-11-13-18(14-12-17)16-9-5-2-6-10-16/h1,3,5,9,11-16H,2,4,6-8,10H2

> <InChI Key_QSARr>
TVBYFUMVFJKKNJ-UHFFFAOYSA-N

> <Salt_Solvent>


> <Salt_Solvent_ID>
0

> <MPID>
101215

> <Tr_1_Tst_0>
1

> <Ready_Biodeg>
0.0

$$$$
Row1181
  Mrv171c012251911052D          

  8  8  0  0  0  0            999 V2000
    0.9959    1.4904    0.0000 C   0  0  0  0  0  0  0  0  0  0  0  0
    1.7581    1.1747    0.0000 C   0  0  0  0  0  0  0  0  0  0  0  0
    2.0738    0.4125    0.0000 C   0  0  0  0  0  0  0  0  0  0  0  0
    1.7581   -0.3497    0.0000 C   0  0  0  0  0  0  0  0  0  0  0  0
    0.9959   -0.6654    0.0000 C   0  0  0  0  0  0  0  0  0  0  0  0
    0.2337   -0.3497    0.0000 C   0  0  0  0  0  0  0  0  0  0  0  0
   -0.0821    0.4125    0.0000 C   0  0  0  0  0  0  0  0  0  0  0  0
    0.2337    1.1747    0.0000 C   0  0  0  0  0  0  0  0  0  0  0  0
  1  2  1  0  0  0  0
  3  2  1  4  0  0  0
  3  4  2  0  0  0  0
  4  5  1  0  0  0  0
  5  6  1  0  0  0  0
  7  6  1  4  0  0  0
  7  8  2  0  0  0  0
  1  8  1  0  0  0  0
M  END
> <ChemID>
201298

> <CAS>
111-78-4

> <Original_SMILES>
C1CC=CCCC=C1

> <preferred_name>
1,5-Cyclooctadiene

> <dsstox_substance_id>
DTXSID0026888

> <dsstox_compound_id>
DTXCID806888

> <qc_level>


> <Canonical_QSARr>
C1CC=CCCC=C1

> <InChI_Code_QSARr>
InChI=1S/C8H12/c1-2-4-6-8-7-5-3-1/h1-2,7-8H,3-6H2/b2-1-,8-7-

> <InChI Key_QSARr>
VYXHVRARDIDEHS-QGTKBVGQSA-N

> <Salt_Solvent>


> <Salt_Solvent_ID>
0

> <MPID>
101216

> <Tr_1_Tst_0>
1

> <Ready_Biodeg>
0.0

$$$$
Row1182
  Mrv171c012251911052D          

  6  6  0  0  0  0            999 V2000
    0.0000   -0.0000    0.0000 C   0  0  0  0  0  0  0  0  0  0  0  0
   -0.7145    0.4125    0.0000 C   0  0  0  0  0  0  0  0  0  0  0  0
   -1.4289    0.0000    0.0000 C   0  0  0  0  0  0  0  0  0  0  0  0
   -1.4289   -0.8250    0.0000 C   0  0  0  0  0  0  0  0  0  0  0  0
   -0.7145   -1.2375    0.0000 C   0  0  0  0  0  0  0  0  0  0  0  0
    0.0000   -0.8250    0.0000 C   0  0  0  0  0  0  0  0  0  0  0  0
  2  1  1  0  0  0  0
  3  2  1  0  0  0  0
  4  3  1  0  0  0  0
  5  4  2  0  0  0  0
  6  5  1  0  0  0  0
  1  6  1  0  0  0  0
M  END
> <ChemID>
201301

> <CAS>
110-83-8

> <Original_SMILES>
C1CCCC=C1

> <preferred_name>
Cyclohexene

> <dsstox_substance_id>
DTXSID9038717

> <dsstox_compound_id>
DTXCID7018717

> <qc_level>


> <Canonical_QSARr>
C1CCCC=C1

> <InChI_Code_QSARr>
InChI=1S/C6H10/c1-2-4-6-5-3-1/h1-2H,3-6H2

> <InChI Key_QSARr>
HGCIXCUEYOPUTN-UHFFFAOYSA-N

> <Salt_Solvent>


> <Salt_Solvent_ID>
0

> <MPID>
101217

> <Tr_1_Tst_0>
1

> <Ready_Biodeg>
0.0

$$$$
Row1183
  Mrv171c012251911052D          

 23 26  0  0  0  0            999 V2000
   -2.4144   -0.7409    0.0000 C   0  0  0  0  0  0  0  0  0  0  0  0
   -2.0019   -1.4553    0.0000 C   0  0  0  0  0  0  0  0  0  0  0  0
   -1.1769   -1.4553    0.0000 C   0  0  0  0  0  0  0  0  0  0  0  0
   -0.7644   -0.7409    0.0000 C   0  0  0  0  0  0  0  0  0  0  0  0
    0.0606   -0.7409    0.0000 N   0  0  0  0  0  0  0  0  0  0  0  0
    0.4731   -0.0264    0.0000 S   0  0  0  0  0  0  0  0  0  0  0  0
    1.2981   -0.0264    0.0000 C   0  0  0  0  0  0  0  0  0  0  0  0
    1.7830    0.6410    0.0000 S   0  0  0  0  0  0  0  0  0  0  0  0
    2.5677    0.3861    0.0000 C   0  0  0  0  0  0  0  0  0  0  0  0
    3.2821    0.7986    0.0000 C   0  0  0  0  0  0  0  0  0  0  0  0
    3.9966    0.3861    0.0000 C   0  0  0  0  0  0  0  0  0  0  0  0
    3.9966   -0.4389    0.0000 C   0  0  0  0  0  0  0  0  0  0  0  0
    3.2821   -0.8514    0.0000 C   0  0  0  0  0  0  0  0  0  0  0  0
    2.5677   -0.4389    0.0000 C   0  0  0  0  0  0  0  0  0  0  0  0
    1.7830   -0.6938    0.0000 N   0  0  0  0  0  0  0  0  0  0  0  0
    0.4731   -1.4553    0.0000 C   0  0  0  0  0  0  0  0  0  0  0  0
    0.0606   -2.1698    0.0000 C   0  0  0  0  0  0  0  0  0  0  0  0
    0.4731   -2.8843    0.0000 C   0  0  0  0  0  0  0  0  0  0  0  0
    1.2981   -2.8843    0.0000 C   0  0  0  0  0  0  0  0  0  0  0  0
    1.7106   -2.1698    0.0000 C   0  0  0  0  0  0  0  0  0  0  0  0
    1.2981   -1.4553    0.0000 C   0  0  0  0  0  0  0  0  0  0  0  0
   -1.1769   -0.0264    0.0000 C   0  0  0  0  0  0  0  0  0  0  0  0
   -2.0019   -0.0264    0.0000 C   0  0  0  0  0  0  0  0  0  0  0  0
  2  1  1  0  0  0  0
  3  2  1  0  0  0  0
  4  3  1  0  0  0  0
  4  5  1  0  0  0  0
  5  6  1  0  0  0  0
  6  7  1  0  0  0  0
  8  7  1  0  0  0  0
  9  8  1  0  0  0  0
  9 10  2  0  0  0  0
 10 11  1  0  0  0  0
 11 12  2  0  0  0  0
 12 13  1  0  0  0  0
 13 14  2  0  0  0  0
 14  9  1  0  0  0  0
 15 14  1  0  0  0  0
  7 15  2  0  0  0  0
  5 16  1  0  0  0  0
 17 16  1  0  0  0  0
 18 17  1  0  0  0  0
 19 18  1  0  0  0  0
 20 19  1  0  0  0  0
 21 20  1  0  0  0  0
 16 21  1  0  0  0  0
 22  4  1  0  0  0  0
 23 22  1  0  0  0  0
  1 23  1  0  0  0  0
M  END
> <ChemID>
201303

> <CAS>
4979-32-2

> <Original_SMILES>
C1CCCCC1N(Sc1[n]c2ccccc2[s]1)C1CCCCC1

> <preferred_name>
N,N-Dicyclohexyl-2-benzothiazolesulfenamide

> <dsstox_substance_id>
DTXSID3027584

> <dsstox_compound_id>
DTXCID707584

> <qc_level>


> <Canonical_QSARr>
C1CCCCC1N(SC1=NC2=CC=CC=C2S1)C1CCCCC1

> <InChI_Code_QSARr>
InChI=1S/C19H26N2S2/c1-3-9-15(10-4-1)21(16-11-5-2-6-12-16)23-19-20-17-13-7-8-14-18(17)22-19/h7-8,13-16H,1-6,9-12H2

> <InChI Key_QSARr>
CMAUJSNXENPPOF-UHFFFAOYSA-N

> <Salt_Solvent>


> <Salt_Solvent_ID>
0

> <MPID>
101218

> <Tr_1_Tst_0>
1

> <Ready_Biodeg>
0.0

$$$$
Row1184
  Mrv171c012251911052D          

 11 12  0  0  0  0            999 V2000
    1.4965   -0.4125    0.0000 C   0  0  0  0  0  0  0  0  0  0  0  0
    1.1386    0.3308    0.0000 C   0  0  0  0  0  0  0  0  0  0  0  0
    0.3343    0.5144    0.0000 C   0  0  0  0  0  0  0  0  0  0  0  0
   -0.3107   -0.0000    0.0000 N   0  0  0  0  0  0  0  0  0  0  0  0
   -1.0252    0.4125    0.0000 C   0  0  0  0  0  0  0  0  0  0  0  0
   -1.7397   -0.0000    0.0000 C   0  0  0  0  0  0  0  0  0  0  0  0
   -1.7397   -0.8250    0.0000 C   0  0  0  0  0  0  0  0  0  0  0  0
   -1.0252   -1.2375    0.0000 N   0  0  0  0  0  0  0  0  0  0  0  0
   -0.3107   -0.8250    0.0000 C   0  0  0  0  0  0  0  0  0  0  0  0
    0.3343   -1.3394    0.0000 C   0  0  0  0  0  0  0  0  0  0  0  0
    1.1386   -1.1558    0.0000 C   0  0  0  0  0  0  0  0  0  0  0  0
  2  1  1  0  0  0  0
  3  2  1  0  0  0  0
  4  3  1  0  0  0  0
  4  5  1  0  0  0  0
  5  6  1  0  0  0  0
  6  7  1  0  0  0  0
  7  8  1  0  0  0  0
  8  9  2  0  0  0  0
  9  4  1  0  0  0  0
 10  9  1  0  0  0  0
 11 10  1  0  0  0  0
  1 11  1  0  0  0  0
M  END
> <ChemID>
201310

> <CAS>
6674-22-2

> <Original_SMILES>
C1CCN2CCCCCC2=N1

> <preferred_name>
1,8-Diazabicyclo[5.4.0]undec-7-ene

> <dsstox_substance_id>
DTXSID2049424

> <dsstox_compound_id>
DTXCID1029384

> <qc_level>


> <Canonical_QSARr>
C1CCN2CCCCCC2=N1

> <InChI_Code_QSARr>
InChI=1S/C9H16N2/c1-2-5-9-10-6-4-8-11(9)7-3-1/h1-8H2

> <InChI Key_QSARr>
GQHTUMJGOHRCHB-UHFFFAOYSA-N

> <Salt_Solvent>


> <Salt_Solvent_ID>
0

> <MPID>
101219

> <Tr_1_Tst_0>
1

> <Ready_Biodeg>
0.0

$$$$
Row1185
  Mrv171c012251911052D          

  8  9  0  0  0  0            999 V2000
   -0.7656    0.4125    0.0000 C   0  0  0  0  0  0  0  0  0  0  0  0
   -0.7656    1.2375    0.0000 C   0  0  0  0  0  0  0  0  0  0  0  0
   -0.0511    1.6500    0.0000 N   0  0  0  0  0  0  0  0  0  0  0  0
    0.6633    1.2375    0.0000 C   0  0  0  0  0  0  0  0  0  0  0  0
    0.6633    0.4125    0.0000 C   0  0  0  0  0  0  0  0  0  0  0  0
   -0.0511   -0.0000    0.0000 N   0  0  0  0  0  0  0  0  0  0  0  0
   -0.1886    0.5500    0.0000 C   0  0  0  0  0  0  0  0  0  0  0  0
   -0.1886    1.1000    0.0000 C   0  0  0  0  0  0  0  0  0  0  0  0
  2  1  1  0  0  0  0
  3  2  1  0  0  0  0
  3  4  1  0  0  0  0
  4  5  1  0  0  0  0
  5  6  1  0  0  0  0
  1  6  1  0  0  0  0
  6  7  1  0  0  0  0
  7  8  1  0  0  0  0
  8  3  1  0  0  0  0
M  END
> <ChemID>
201311

> <CAS>
280-57-9

> <Original_SMILES>
C1CN2CCN1CC2

> <preferred_name>
1,4-Diazabicyclo[2.2.2]octane

> <dsstox_substance_id>
DTXSID0022016

> <dsstox_compound_id>
DTXCID902016

> <qc_level>


> <Canonical_QSARr>
C1CN2CCN1CC2

> <InChI_Code_QSARr>
InChI=1S/C6H12N2/c1-2-8-5-3-7(1)4-6-8/h1-6H2

> <InChI Key_QSARr>
IMNIMPAHZVJRPE-UHFFFAOYSA-N

> <Salt_Solvent>


> <Salt_Solvent_ID>
0

> <MPID>
101220

> <Tr_1_Tst_0>
1

> <Ready_Biodeg>
0.0

$$$$
Row1186
  Mrv171c012251911052D          

  3  3  0  0  0  0            999 V2000
    0.8250   -0.4763    0.0000 C   0  0  0  0  0  0  0  0  0  0  0  0
    0.4125    0.2382    0.0000 C   0  0  0  0  0  0  0  0  0  0  0  0
    0.0000   -0.4763    0.0000 O   0  0  0  0  0  0  0  0  0  0  0  0
  2  1  1  0  0  0  0
  3  2  1  0  0  0  0
  1  3  1  0  0  0  0
M  END
> <ChemID>
201313

> <CAS>
75-21-8

> <Original_SMILES>
C1CO1

> <preferred_name>
Ethylene oxide

> <dsstox_substance_id>
DTXSID0020600

> <dsstox_compound_id>
DTXCID60600

> <qc_level>


> <Canonical_QSARr>
C1CO1

> <InChI_Code_QSARr>
InChI=1S/C2H4O/c1-2-3-1/h1-2H2

> <InChI Key_QSARr>
IAYPIBMASNFSPL-UHFFFAOYSA-N

> <Salt_Solvent>


> <Salt_Solvent_ID>
0

> <MPID>
101221

> <Tr_1_Tst_0>
1

> <Ready_Biodeg>
1.0

$$$$
Row1187
  Mrv171c012251911052D          

 14 15  0  0  0  0            999 V2000
   -0.3721   -1.1970    0.0000 C   0  0  0  0  0  0  0  0  0  0  0  0
   -0.3721   -0.3720    0.0000 C   0  0  0  0  0  0  0  0  0  0  0  0
   -1.0866    0.0405    0.0000 N   0  0  0  0  0  0  0  0  0  0  0  0
   -1.0866    0.8655    0.0000 S   0  0  0  0  0  0  0  0  0  0  0  0
   -1.8011    1.2780    0.0000 S   0  0  0  0  0  0  0  0  0  0  0  0
   -1.8011    2.1030    0.0000 N   0  0  0  0  0  0  0  0  0  0  0  0
   -1.0866    2.5155    0.0000 C   0  0  0  0  0  0  0  0  0  0  0  0
   -1.0866    3.3405    0.0000 C   0  0  0  0  0  0  0  0  0  0  0  0
   -1.8011    3.7530    0.0000 O   0  0  0  0  0  0  0  0  0  0  0  0
   -2.5155    3.3405    0.0000 C   0  0  0  0  0  0  0  0  0  0  0  0
   -2.5155    2.5155    0.0000 C   0  0  0  0  0  0  0  0  0  0  0  0
   -1.8011   -0.3720    0.0000 C   0  0  0  0  0  0  0  0  0  0  0  0
   -1.8011   -1.1970    0.0000 C   0  0  0  0  0  0  0  0  0  0  0  0
   -1.0866   -1.6095    0.0000 O   0  0  0  0  0  0  0  0  0  0  0  0
  2  1  1  0  0  0  0
  3  2  1  0  0  0  0
  3  4  1  0  0  0  0
  4  5  1  0  0  0  0
  5  6  1  0  0  0  0
  7  6  1  0  0  0  0
  8  7  1  0  0  0  0
  9  8  1  0  0  0  0
 10  9  1  0  0  0  0
 11 10  1  0  0  0  0
  6 11  1  0  0  0  0
 12  3  1  0  0  0  0
 13 12  1  0  0  0  0
 14 13  1  0  0  0  0
  1 14  1  0  0  0  0
M  END
> <ChemID>
201315

> <CAS>
103-34-4

> <Original_SMILES>
C1COCCN1SSN1CCOCC1

> <preferred_name>
4,4'-Dithiodimorpholine

> <dsstox_substance_id>
DTXSID8026698

> <dsstox_compound_id>
DTXCID706698

> <qc_level>


> <Canonical_QSARr>
C1COCCN1SSN1CCOCC1

> <InChI_Code_QSARr>
InChI=1S/C8H16N2O2S2/c1-5-11-6-2-9(1)13-14-10-3-7-12-8-4-10/h1-8H2

> <InChI Key_QSARr>
HLBZWYXLQJQBKU-UHFFFAOYSA-N

> <Salt_Solvent>


> <Salt_Solvent_ID>
0

> <MPID>
101222

> <Tr_1_Tst_0>
1

> <Ready_Biodeg>
0.0

$$$$
Row1188
  Mrv171c012251911052D          

  9  9  0  0  0  0            999 V2000
    0.5311    1.4208    0.0000 Br  0  0  0  0  0  0  0  0  0  0  0  0
   -0.1833    1.0083    0.0000 C   0  0  0  0  0  0  0  0  0  0  0  0
   -0.8978    1.4208    0.0000 C   0  0  0  0  0  0  0  0  0  0  0  0
   -0.1833    0.1833    0.0000 C   0  0  0  0  0  0  0  0  0  0  0  0
   -0.8978   -0.2292    0.0000 C   0  0  0  0  0  0  0  0  0  0  0  0
   -0.8978   -1.0542    0.0000 C   0  0  0  0  0  0  0  0  0  0  0  0
   -0.1833   -1.4667    0.0000 C   0  0  0  0  0  0  0  0  0  0  0  0
    0.5311   -1.0542    0.0000 C   0  0  0  0  0  0  0  0  0  0  0  0
    0.5311   -0.2292    0.0000 C   0  0  0  0  0  0  0  0  0  0  0  0
  1  2  1  0  0  0  0
  2  3  2  0  0  0  0
  2  4  1  0  0  0  0
  5  4  2  0  0  0  0
  6  5  1  0  0  0  0
  7  6  2  0  0  0  0
  8  7  1  0  0  0  0
  9  8  2  0  0  0  0
  4  9  1  0  0  0  0
M  END
> <ChemID>
201320

> <CAS>
98-81-7

> <Original_SMILES>
C=C(Br)c1ccccc1

> <preferred_name>
Styrene, alpha-bromo-

> <dsstox_substance_id>
DTXSID70243366

> <dsstox_compound_id>
DTXCID70165857

> <qc_level>


> <Canonical_QSARr>
C=C(Br)C1C=CC=CC=1

> <InChI_Code_QSARr>
InChI=1S/C8H7Br/c1-7(9)8-5-3-2-4-6-8/h2-6H,1H2

> <InChI Key_QSARr>
SRXJYTZCORKVNA-UHFFFAOYSA-N

> <Salt_Solvent>


> <Salt_Solvent_ID>
0

> <MPID>
101223

> <Tr_1_Tst_0>
0

> <Ready_Biodeg>
0.0

$$$$
Row1189
  Mrv171c012251911052D          

  9  8  0  0  0  0            999 V2000
   -1.5050   -0.0827    0.0000 O   0  0  0  0  0  0  0  0  0  0  0  0
   -0.7906    0.3298    0.0000 C   0  0  0  0  0  0  0  0  0  0  0  0
   -0.7906    1.1548    0.0000 O   0  0  0  0  0  0  0  0  0  0  0  0
   -0.0761   -0.0827    0.0000 C   0  0  0  0  0  0  0  0  0  0  0  0
    0.6384    0.3298    0.0000 C   0  0  0  0  0  0  0  0  0  0  0  0
    0.6384    1.1548    0.0000 C   0  0  0  0  0  0  0  0  0  0  0  0
    1.3528   -0.0827    0.0000 C   0  0  0  0  0  0  0  0  0  0  0  0
    2.0673    0.3298    0.0000 O   0  0  0  0  0  0  0  0  0  0  0  0
    1.3528   -0.9077    0.0000 O   0  0  0  0  0  0  0  0  0  0  0  0
  1  2  1  0  0  0  0
  2  3  2  0  0  0  0
  2  4  1  0  0  0  0
  4  5  1  0  0  0  0
  5  6  2  0  0  0  0
  5  7  1  0  0  0  0
  7  8  1  0  0  0  0
  7  9  2  0  0  0  0
M  END
> <ChemID>
201321

> <CAS>
97-65-4

> <Original_SMILES>
C=C(CC(O)=O)C(O)=O

> <preferred_name>
Methylenebutanedioic acid

> <dsstox_substance_id>
DTXSID2026608

> <dsstox_compound_id>
DTXCID006608

> <qc_level>


> <Canonical_QSARr>
C=C(CC(O)=O)C(O)=O

> <InChI_Code_QSARr>
InChI=1S/C5H6O4/c1-3(5(8)9)2-4(6)7/h1-2H2,(H,6,7)(H,8,9)

> <InChI Key_QSARr>
LVHBHZANLOWSRM-UHFFFAOYSA-N

> <Salt_Solvent>


> <Salt_Solvent_ID>
0

> <MPID>
101224

> <Tr_1_Tst_0>
1

> <Ready_Biodeg>
1.0

$$$$
Row1190
  Mrv171c012251911052D          

 21 20  0  0  0  0            999 V2000
   -1.0820   -1.1355    0.0000 O   0  0  0  0  0  0  0  0  0  0  0  0
   -0.3675   -0.7230    0.0000 C   0  0  0  0  0  0  0  0  0  0  0  0
   -0.3675    0.1020    0.0000 C   0  0  0  0  0  0  0  0  0  0  0  0
    0.4575    0.1020    0.0000 C   0  0  0  0  0  0  0  0  0  0  0  0
    0.8700   -0.6125    0.0000 O   0  0  0  0  0  0  0  0  0  0  0  0
    1.6950   -0.6125    0.0000 C   0  0  0  0  0  0  0  0  0  0  0  0
    2.1075    0.1020    0.0000 O   0  0  0  0  0  0  0  0  0  0  0  0
    2.1075   -1.3270    0.0000 C   0  0  0  0  0  0  0  0  0  0  0  0
    2.9325   -1.3270    0.0000 C   0  0  0  0  0  0  0  0  0  0  0  0
   -1.1925    0.1020    0.0000 C   0  0  0  0  0  0  0  0  0  0  0  0
   -1.6050    0.8165    0.0000 O   0  0  0  0  0  0  0  0  0  0  0  0
   -2.4300    0.8165    0.0000 C   0  0  0  0  0  0  0  0  0  0  0  0
   -2.8425    0.1020    0.0000 O   0  0  0  0  0  0  0  0  0  0  0  0
   -2.8425    1.5309    0.0000 C   0  0  0  0  0  0  0  0  0  0  0  0
   -3.6675    1.5309    0.0000 C   0  0  0  0  0  0  0  0  0  0  0  0
   -0.3675    0.9270    0.0000 C   0  0  0  0  0  0  0  0  0  0  0  0
    0.3470    1.3395    0.0000 O   0  0  0  0  0  0  0  0  0  0  0  0
    1.0614    0.9270    0.0000 C   0  0  0  0  0  0  0  0  0  0  0  0
    1.0614    0.1020    0.0000 O   0  0  0  0  0  0  0  0  0  0  0  0
    1.7759    1.3395    0.0000 C   0  0  0  0  0  0  0  0  0  0  0  0
    2.4904    0.9270    0.0000 C   0  0  0  0  0  0  0  0  0  0  0  0
  1  2  1  0  0  0  0
  2  3  1  0  0  0  0
  3  4  1  0  0  0  0
  4  5  1  0  0  0  0
  5  6  1  0  0  0  0
  6  7  2  0  0  0  0
  6  8  1  0  0  0  0
  8  9  2  0  0  0  0
  3 10  1  0  0  0  0
 10 11  1  0  0  0  0
 11 12  1  0  0  0  0
 12 13  2  0  0  0  0
 12 14  1  0  0  0  0
 14 15  2  0  0  0  0
  3 16  1  0  0  0  0
 16 17  1  0  0  0  0
 17 18  1  0  0  0  0
 18 19  2  0  0  0  0
 18 20  1  0  0  0  0
 20 21  2  0  0  0  0
M  END
> <ChemID>
201323

> <CAS>
3524-68-3

> <Original_SMILES>
C=CC(=O)OCC(CO)(COC(=O)C=C)COC(=O)C=C

> <preferred_name>
Pentaerythritol triacrylate

> <dsstox_substance_id>
DTXSID2025842

> <dsstox_compound_id>
DTXCID105842

> <qc_level>


> <Canonical_QSARr>
C=CC(=O)OCC(CO)(COC(=O)C=C)COC(=O)C=C

> <InChI_Code_QSARr>
InChI=1S/C14H18O7/c1-4-11(16)19-8-14(7-15,9-20-12(17)5-2)10-21-13(18)6-3/h4-6,15H,1-3,7-10H2

> <InChI Key_QSARr>
HVVWZTWDBSEWIH-UHFFFAOYSA-N

> <Salt_Solvent>


> <Salt_Solvent_ID>
0

> <MPID>
101225

> <Tr_1_Tst_0>
1

> <Ready_Biodeg>
0.0

$$$$
Row1191
  Mrv171c012251911052D          

 30 30  0  0  0  0            999 V2000
   -4.1440    3.7125    0.0000 C   0  0  0  0  0  0  0  0  0  0  0  0
   -4.1440    2.8875    0.0000 C   0  0  0  0  0  0  0  0  0  0  0  0
   -3.4295    2.4750    0.0000 C   0  0  0  0  0  0  0  0  0  0  0  0
   -2.7150    2.8875    0.0000 O   0  0  0  0  0  0  0  0  0  0  0  0
   -3.4295    1.6500    0.0000 O   0  0  0  0  0  0  0  0  0  0  0  0
   -2.7150    1.2375    0.0000 C   0  0  0  0  0  0  0  0  0  0  0  0
   -2.7150    0.4125    0.0000 C   0  0  0  0  0  0  0  0  0  0  0  0
   -2.0006   -0.0000    0.0000 N   0  0  0  0  0  0  0  0  0  0  0  0
   -2.0006   -0.8250    0.0000 C   0  0  0  0  0  0  0  0  0  0  0  0
   -2.7150   -1.2375    0.0000 O   0  0  0  0  0  0  0  0  0  0  0  0
   -1.2861   -1.2375    0.0000 N   0  0  0  0  0  0  0  0  0  0  0  0
   -1.2861   -2.0625    0.0000 C   0  0  0  0  0  0  0  0  0  0  0  0
   -0.5716   -2.4750    0.0000 C   0  0  0  0  0  0  0  0  0  0  0  0
   -0.5716   -3.3000    0.0000 O   0  0  0  0  0  0  0  0  0  0  0  0
    0.1429   -3.7125    0.0000 C   0  0  0  0  0  0  0  0  0  0  0  0
    0.8573   -3.3000    0.0000 O   0  0  0  0  0  0  0  0  0  0  0  0
    0.1429   -4.5375    0.0000 C   0  0  0  0  0  0  0  0  0  0  0  0
    0.8573   -4.9500    0.0000 C   0  0  0  0  0  0  0  0  0  0  0  0
   -0.5716   -0.8250    0.0000 C   0  0  0  0  0  0  0  0  0  0  0  0
    0.1429   -1.2375    0.0000 O   0  0  0  0  0  0  0  0  0  0  0  0
   -0.5716   -0.0000    0.0000 N   0  0  0  0  0  0  0  0  0  0  0  0
    0.1429    0.4125    0.0000 C   0  0  0  0  0  0  0  0  0  0  0  0
    0.8573   -0.0000    0.0000 C   0  0  0  0  0  0  0  0  0  0  0  0
    1.5718    0.4125    0.0000 O   0  0  0  0  0  0  0  0  0  0  0  0
    2.2863   -0.0000    0.0000 C   0  0  0  0  0  0  0  0  0  0  0  0
    2.2863   -0.8250    0.0000 O   0  0  0  0  0  0  0  0  0  0  0  0
    3.0007    0.4125    0.0000 C   0  0  0  0  0  0  0  0  0  0  0  0
    3.7152   -0.0000    0.0000 C   0  0  0  0  0  0  0  0  0  0  0  0
   -1.2861    0.4125    0.0000 C   0  0  0  0  0  0  0  0  0  0  0  0
   -1.2861    1.2375    0.0000 O   0  0  0  0  0  0  0  0  0  0  0  0
  1  2  2  0  0  0  0
  2  3  1  0  0  0  0
  3  4  2  0  0  0  0
  3  5  1  0  0  0  0
  5  6  1  0  0  0  0
  6  7  1  0  0  0  0
  7  8  1  0  0  0  0
  9  8  1  0  0  0  0
  9 10  2  0  0  0  0
 11  9  1  0  0  0  0
 11 12  1  0  0  0  0
 12 13  1  0  0  0  0
 13 14  1  0  0  0  0
 14 15  1  0  0  0  0
 15 16  2  0  0  0  0
 15 17  1  0  0  0  0
 17 18  2  0  0  0  0
 19 11  1  0  0  0  0
 19 20  2  0  0  0  0
 21 19  1  0  0  0  0
 21 22  1  0  0  0  0
 22 23  1  0  0  0  0
 23 24  1  0  0  0  0
 24 25  1  0  0  0  0
 25 26  2  0  0  0  0
 25 27  1  0  0  0  0
 27 28  2  0  0  0  0
 29 21  1  0  0  0  0
  8 29  1  0  0  0  0
 29 30  2  0  0  0  0
M  END
> <ChemID>
201324

> <CAS>
40220-08-4

> <Original_SMILES>
C=CC(=O)OCCN1C(=O)N(CCOC(=O)C=C)C(=O)N(CCOC(=O)C=C)C1=O

> <preferred_name>
(2,4,6-Trioxo-1,3,5-triazinane-1,3,5-triyl)triethane-2,1-diyl trisprop-2-enoate

> <dsstox_substance_id>
DTXSID1044936

> <dsstox_compound_id>
DTXCID9024936

> <qc_level>


> <Canonical_QSARr>
C=CC(=O)OCCN1C(=O)N(CCOC(=O)C=C)C(=O)N(CCOC(=O)C=C)C1=O

> <InChI_Code_QSARr>
InChI=1S/C18H21N3O9/c1-4-13(22)28-10-7-19-16(25)20(8-11-29-14(23)5-2)18(27)21(17(19)26)9-12-30-15(24)6-3/h4-6H,1-3,7-12H2

> <InChI Key_QSARr>
YIJYFLXQHDOQGW-UHFFFAOYSA-N

> <Salt_Solvent>


> <Salt_Solvent_ID>
0

> <MPID>
101226

> <Tr_1_Tst_0>
0

> <Ready_Biodeg>
0.0

$$$$
Row1192
  Mrv171c012251911052D          

 10 10  0  0  0  0            999 V2000
    0.8320   -2.1241    0.0000 O   0  0  0  0  0  0  0  0  0  0  0  0
    0.8320   -1.2991    0.0000 C   0  0  0  0  0  0  0  0  0  0  0  0
    1.5465   -0.8866    0.0000 C   0  0  0  0  0  0  0  0  0  0  0  0
    1.5465   -0.0616    0.0000 C   0  0  0  0  0  0  0  0  0  0  0  0
    0.8320    0.3509    0.0000 C   0  0  0  0  0  0  0  0  0  0  0  0
    0.8320    1.1759    0.0000 C   0  0  0  0  0  0  0  0  0  0  0  0
    0.1175    1.5884    0.0000 C   0  0  0  0  0  0  0  0  0  0  0  0
    0.1175   -0.0616    0.0000 C   0  0  0  0  0  0  0  0  0  0  0  0
    0.1175   -0.8866    0.0000 C   0  0  0  0  0  0  0  0  0  0  0  0
   -0.5969   -1.2991    0.0000 O   0  0  0  0  0  0  0  0  0  0  0  0
  1  2  1  0  0  0  0
  3  2  1  0  0  0  0
  4  3  1  0  0  0  0
  5  4  1  0  0  0  0
  5  6  1  0  0  0  0
  6  7  2  0  0  0  0
  8  5  1  0  0  0  0
  9  8  1  0  0  0  0
  2  9  1  0  0  0  0
  9 10  1  0  0  0  0
M  END
> <ChemID>
201329

> <CAS>
106-86-5

> <Original_SMILES>
C=CC1CC(O)C(O)CC1

> <preferred_name>


> <dsstox_substance_id>


> <dsstox_compound_id>


> <qc_level>


> <Canonical_QSARr>
C=CC1CC(O)C(O)CC1

> <InChI_Code_QSARr>
InChI=1S/C8H14O2/c1-2-6-3-4-7(9)8(10)5-6/h2,6-10H,1,3-5H2

> <InChI Key_QSARr>
BSJHRRSHDADBTA-UHFFFAOYSA-N

> <Salt_Solvent>


> <Salt_Solvent_ID>
0

> <MPID>
101227

> <Tr_1_Tst_0>
1

> <Ready_Biodeg>
0.0

$$$$
Row1193
  Mrv171c012251911052D          

 25 24  0  0  0  0            999 V2000
   -6.2168   -0.2189    0.0000 O   0  0  0  0  0  0  0  0  0  0  0  0
   -5.5024    0.1936    0.0000 C   0  0  0  0  0  0  0  0  0  0  0  0
   -5.5024    1.0186    0.0000 O   0  0  0  0  0  0  0  0  0  0  0  0
   -4.7879   -0.2189    0.0000 C   0  0  0  0  0  0  0  0  0  0  0  0
   -4.0734    0.1936    0.0000 C   0  0  0  0  0  0  0  0  0  0  0  0
   -3.3590   -0.2189    0.0000 C   0  0  0  0  0  0  0  0  0  0  0  0
   -2.6445    0.1936    0.0000 C   0  0  0  0  0  0  0  0  0  0  0  0
   -1.9300   -0.2189    0.0000 C   0  0  0  0  0  0  0  0  0  0  0  0
   -1.2155    0.1936    0.0000 C   0  0  0  0  0  0  0  0  0  0  0  0
   -0.5011   -0.2189    0.0000 C   0  0  0  0  0  0  0  0  0  0  0  0
    0.2134    0.1936    0.0000 C   0  0  0  0  0  0  0  0  0  0  0  0
    0.9279   -0.2189    0.0000 C   0  0  0  0  0  0  0  0  0  0  0  0
    1.6423    0.1936    0.0000 C   0  0  0  0  0  0  0  0  0  0  0  0
    2.3568   -0.2189    0.0000 C   0  0  0  0  0  0  0  0  0  0  0  0
    3.0713    0.1936    0.0000 C   0  0  0  0  0  0  0  0  0  0  0  0
    3.7858   -0.2189    0.0000 C   0  0  0  0  0  0  0  0  0  0  0  0
    4.5002    0.1936    0.0000 C   0  0  0  0  0  0  0  0  0  0  0  0
    5.2147   -0.2189    0.0000 C   0  0  0  0  0  0  0  0  0  0  0  0
    5.9292    0.1936    0.0000 C   0  0  0  0  0  0  0  0  0  0  0  0
    6.6436   -0.2189    0.0000 C   0  0  0  0  0  0  0  0  0  0  0  0
    7.3581    0.1936    0.0000 C   0  0  0  0  0  0  0  0  0  0  0  0
    8.0726   -0.2189    0.0000 C   0  0  0  0  0  0  0  0  0  0  0  0
    8.7871    0.1936    0.0000 C   0  0  0  0  0  0  0  0  0  0  0  0
    9.5015   -0.2189    0.0000 C   0  0  0  0  0  0  0  0  0  0  0  0
   10.2160    0.1936    0.0000 C   0  0  0  0  0  0  0  0  0  0  0  0
  1  2  1  0  0  0  0
  2  3  2  0  0  0  0
  2  4  1  0  0  0  0
  4  5  1  0  0  0  0
  5  6  1  0  0  0  0
  6  7  1  0  0  0  0
  7  8  1  0  0  0  0
  8  9  1  0  0  0  0
  9 10  1  0  0  0  0
 10 11  1  0  0  0  0
 11 12  1  0  0  0  0
 12 13  1  0  0  0  0
 13 14  1  0  0  0  0
 14 15  1  0  0  0  0
 15 16  1  0  0  0  0
 16 17  1  0  0  0  0
 17 18  1  0  0  0  0
 18 19  1  0  0  0  0
 19 20  1  0  0  0  0
 20 21  1  0  0  0  0
 21 22  1  0  0  0  0
 22 23  1  0  0  0  0
 23 24  1  0  0  0  0
 24 25  2  0  0  0  0
M  END
> <ChemID>
201331

> <CAS>
65119-95-1

> <Original_SMILES>
C=CCCCCCCCCCCCCCCCCCCCCC(O)=O

> <preferred_name>
22-Tricosenoic acid

> <dsstox_substance_id>
DTXSID50337656

> <dsstox_compound_id>
DTXCID80288743

> <qc_level>


> <Canonical_QSARr>
C=CCCCCCCCCCCCCCCCCCCCCC(O)=O

> <InChI_Code_QSARr>
InChI=1S/C23H44O2/c1-2-3-4-5-6-7-8-9-10-11-12-13-14-15-16-17-18-19-20-21-22-23(24)25/h2H,1,3-22H2,(H,24,25)

> <InChI Key_QSARr>
YGTSVJQQDISEHZ-UHFFFAOYSA-N

> <Salt_Solvent>


> <Salt_Solvent_ID>
0

> <MPID>
101228

> <Tr_1_Tst_0>
1

> <Ready_Biodeg>
1.0

$$$$
Row1194
  Mrv171c012251911052D          

 18 18  0  0  0  0            999 V2000
    1.9846    0.4125    0.0000 C   0  0  0  0  0  0  0  0  0  0  0  0
    1.2702    0.0000    0.0000 C   0  0  0  0  0  0  0  0  0  0  0  0
    0.5557    0.4125    0.0000 C   0  0  0  0  0  0  0  0  0  0  0  0
   -0.1588    0.0000    0.0000 N   0  0  0  0  0  0  0  0  0  0  0  0
   -0.8732    0.4125    0.0000 C   0  0  0  0  0  0  0  0  0  0  0  0
   -0.8732    1.2375    0.0000 O   0  0  0  0  0  0  0  0  0  0  0  0
   -1.5877    0.0000    0.0000 N   0  0  0  0  0  0  0  0  0  0  0  0
   -2.3022    0.4125    0.0000 C   0  0  0  0  0  0  0  0  0  0  0  0
   -2.3022    1.2375    0.0000 C   0  0  0  0  0  0  0  0  0  0  0  0
   -3.0167    1.6500    0.0000 C   0  0  0  0  0  0  0  0  0  0  0  0
   -1.5877   -0.8250    0.0000 C   0  0  0  0  0  0  0  0  0  0  0  0
   -2.3022   -1.2375    0.0000 O   0  0  0  0  0  0  0  0  0  0  0  0
   -0.8732   -1.2375    0.0000 N   0  0  0  0  0  0  0  0  0  0  0  0
   -0.8732   -2.0625    0.0000 C   0  0  0  0  0  0  0  0  0  0  0  0
   -0.1588   -2.4750    0.0000 C   0  0  0  0  0  0  0  0  0  0  0  0
   -0.1588   -3.3000    0.0000 C   0  0  0  0  0  0  0  0  0  0  0  0
   -0.1588   -0.8250    0.0000 C   0  0  0  0  0  0  0  0  0  0  0  0
    0.5557   -1.2375    0.0000 O   0  0  0  0  0  0  0  0  0  0  0  0
  1  2  2  0  0  0  0
  2  3  1  0  0  0  0
  3  4  1  0  0  0  0
  5  4  1  0  0  0  0
  5  6  2  0  0  0  0
  7  5  1  0  0  0  0
  7  8  1  0  0  0  0
  8  9  1  0  0  0  0
  9 10  2  0  0  0  0
 11  7  1  0  0  0  0
 11 12  2  0  0  0  0
 13 11  1  0  0  0  0
 13 14  1  0  0  0  0
 14 15  1  0  0  0  0
 15 16  2  0  0  0  0
 17 13  1  0  0  0  0
  4 17  1  0  0  0  0
 17 18  2  0  0  0  0
M  END
> <ChemID>
201334

> <CAS>
1025-15-6

> <Original_SMILES>
C=CCN1C(=O)N(CC=C)C(=O)N(CC=C)C1=O

> <preferred_name>
Triallyl isocyanurate

> <dsstox_substance_id>
DTXSID0026175

> <dsstox_compound_id>
DTXCID906175

> <qc_level>


> <Canonical_QSARr>
C=CCN1C(=O)N(CC=C)C(=O)N(CC=C)C1=O

> <InChI_Code_QSARr>
InChI=1S/C12H15N3O3/c1-4-7-13-10(16)14(8-5-2)12(18)15(9-6-3)11(13)17/h4-6H,1-3,7-9H2

> <InChI Key_QSARr>
KOMNUTZXSVSERR-UHFFFAOYSA-N

> <Salt_Solvent>


> <Salt_Solvent_ID>
0

> <MPID>
101229

> <Tr_1_Tst_0>
1

> <Ready_Biodeg>
0.0

$$$$
Row1195
  Mrv171c012251911052D          

 19 18  0  0  0  0            999 V2000
   -6.4302   -0.1954    0.0000 C   0  0  0  0  0  0  0  0  0  0  0  0
   -5.7157   -0.6079    0.0000 C   0  0  0  0  0  0  0  0  0  0  0  0
   -5.0013   -0.1954    0.0000 C   0  0  0  0  0  0  0  0  0  0  0  0
   -4.2868   -0.6079    0.0000 O   0  0  0  0  0  0  0  0  0  0  0  0
   -3.5723   -0.1954    0.0000 C   0  0  0  0  0  0  0  0  0  0  0  0
   -3.5723    0.6296    0.0000 O   0  0  0  0  0  0  0  0  0  0  0  0
   -2.8579   -0.6079    0.0000 O   0  0  0  0  0  0  0  0  0  0  0  0
   -2.1434   -0.1954    0.0000 C   0  0  0  0  0  0  0  0  0  0  0  0
   -1.4289   -0.6079    0.0000 C   0  0  0  0  0  0  0  0  0  0  0  0
   -0.7144   -0.1954    0.0000 O   0  0  0  0  0  0  0  0  0  0  0  0
    0.0000   -0.6079    0.0000 C   0  0  0  0  0  0  0  0  0  0  0  0
    0.7145   -0.1954    0.0000 C   0  0  0  0  0  0  0  0  0  0  0  0
    1.4290   -0.6079    0.0000 O   0  0  0  0  0  0  0  0  0  0  0  0
    2.1434   -0.1954    0.0000 C   0  0  0  0  0  0  0  0  0  0  0  0
    2.1434    0.6296    0.0000 O   0  0  0  0  0  0  0  0  0  0  0  0
    2.8579   -0.6079    0.0000 O   0  0  0  0  0  0  0  0  0  0  0  0
    3.5724   -0.1954    0.0000 C   0  0  0  0  0  0  0  0  0  0  0  0
    4.2869   -0.6079    0.0000 C   0  0  0  0  0  0  0  0  0  0  0  0
    5.0013   -0.1954    0.0000 C   0  0  0  0  0  0  0  0  0  0  0  0
  1  2  2  0  0  0  0
  2  3  1  0  0  0  0
  3  4  1  0  0  0  0
  4  5  1  0  0  0  0
  5  6  2  0  0  0  0
  5  7  1  0  0  0  0
  7  8  1  0  0  0  0
  8  9  1  0  0  0  0
  9 10  1  0  0  0  0
 10 11  1  0  0  0  0
 11 12  1  0  0  0  0
 12 13  1  0  0  0  0
 13 14  1  0  0  0  0
 14 15  2  0  0  0  0
 14 16  1  0  0  0  0
 16 17  1  0  0  0  0
 17 18  1  0  0  0  0
 18 19  2  0  0  0  0
M  END
> <ChemID>
201336

> <CAS>
142-22-3

> <Original_SMILES>
C=CCOC(=O)OCCOCCOC(=O)OCC=C

> <preferred_name>
2,5,8,10-Tetraoxatridec-12-enoic acid, 9-oxo-, 2-propenyl ester

> <dsstox_substance_id>
DTXSID7027095

> <dsstox_compound_id>
DTXCID407095

> <qc_level>


> <Canonical_QSARr>
C=CCOC(=O)OCCOCCOC(=O)OCC=C

> <InChI_Code_QSARr>
InChI=1S/C12H18O7/c1-3-5-16-11(13)18-9-7-15-8-10-19-12(14)17-6-4-2/h3-4H,1-2,5-10H2

> <InChI Key_QSARr>
JHQVCQDWGSXTFE-UHFFFAOYSA-N

> <Salt_Solvent>


> <Salt_Solvent_ID>
0

> <MPID>
101230

> <Tr_1_Tst_0>
0

> <Ready_Biodeg>
1.0

$$$$
Row1196
  Mrv171c012251911052D          

 15 16  0  0  0  0            999 V2000
   -3.2365   -2.5536    0.0000 C   0  0  0  0  0  0  0  0  0  0  0  0
   -2.4296   -2.3821    0.0000 C   0  0  0  0  0  0  0  0  0  0  0  0
   -2.1746   -1.5975    0.0000 C   0  0  0  0  0  0  0  0  0  0  0  0
   -1.3676   -1.4259    0.0000 O   0  0  0  0  0  0  0  0  0  0  0  0
   -1.1127   -0.6413    0.0000 C   0  0  0  0  0  0  0  0  0  0  0  0
   -1.5976    0.0261    0.0000 N   0  0  0  0  0  0  0  0  0  0  0  0
   -1.1127    0.6936    0.0000 S   0  0  0  0  0  0  0  0  0  0  0  0
   -1.8272    1.1061    0.0000 O   0  0  0  0  0  0  0  0  0  0  0  0
   -0.7771    1.4473    0.0000 O   0  0  0  0  0  0  0  0  0  0  0  0
   -0.3281    0.4386    0.0000 C   0  0  0  0  0  0  0  0  0  0  0  0
    0.3864    0.8511    0.0000 C   0  0  0  0  0  0  0  0  0  0  0  0
    1.1009    0.4386    0.0000 C   0  0  0  0  0  0  0  0  0  0  0  0
    1.1009   -0.3864    0.0000 C   0  0  0  0  0  0  0  0  0  0  0  0
    0.3864   -0.7989    0.0000 C   0  0  0  0  0  0  0  0  0  0  0  0
   -0.3281   -0.3864    0.0000 C   0  0  0  0  0  0  0  0  0  0  0  0
  1  2  2  0  0  0  0
  2  3  1  0  0  0  0
  3  4  1  0  0  0  0
  4  5  1  0  0  0  0
  6  5  2  0  0  0  0
  7  6  1  0  0  0  0
  7  8  2  0  0  0  0
  7  9  2  0  0  0  0
 10  7  1  0  0  0  0
 10 11  2  0  0  0  0
 11 12  1  0  0  0  0
 12 13  2  0  0  0  0
 13 14  1  0  0  0  0
 14 15  2  0  0  0  0
  5 15  1  0  0  0  0
 15 10  1  0  0  0  0
M  END
> <ChemID>
201338

> <CAS>
27605-76-1

> <Original_SMILES>
C=CCOC1=NS(=O)(=O)c2ccccc21

> <preferred_name>
Probenazole

> <dsstox_substance_id>
DTXSID7058048

> <dsstox_compound_id>
DTXCID3031816

> <qc_level>


> <Canonical_QSARr>
C=CCOC1=NS(=O)(=O)C2=CC=CC=C21

> <InChI_Code_QSARr>
InChI=1S/C10H9NO3S/c1-2-7-14-10-8-5-3-4-6-9(8)15(12,13)11-10/h2-6H,1,7H2

> <InChI Key_QSARr>
WHHIPMZEDGBUCC-UHFFFAOYSA-N

> <Salt_Solvent>


> <Salt_Solvent_ID>
0

> <MPID>
101231

> <Tr_1_Tst_0>
1

> <Ready_Biodeg>
0.0

$$$$
Row1197
  Mrv171c012251911052D          

 10 10  0  0  0  0            999 V2000
   -1.3877    0.1540    0.0000 O   0  0  0  0  0  0  0  0  0  0  0  0
   -0.6732   -0.2585    0.0000 C   0  0  0  0  0  0  0  0  0  0  0  0
   -0.6732   -1.0835    0.0000 C   0  0  0  0  0  0  0  0  0  0  0  0
    0.0413   -1.4960    0.0000 C   0  0  0  0  0  0  0  0  0  0  0  0
    0.7557   -1.0835    0.0000 C   0  0  0  0  0  0  0  0  0  0  0  0
    0.7557   -0.2585    0.0000 C   0  0  0  0  0  0  0  0  0  0  0  0
    0.0413    0.1540    0.0000 C   0  0  0  0  0  0  0  0  0  0  0  0
    0.0413    0.9790    0.0000 C   0  0  0  0  0  0  0  0  0  0  0  0
    0.7557    1.3915    0.0000 C   0  0  0  0  0  0  0  0  0  0  0  0
    0.7557    2.2165    0.0000 C   0  0  0  0  0  0  0  0  0  0  0  0
  1  2  1  0  0  0  0
  3  2  2  0  0  0  0
  4  3  1  0  0  0  0
  5  4  2  0  0  0  0
  6  5  1  0  0  0  0
  7  6  2  0  0  0  0
  2  7  1  0  0  0  0
  7  8  1  0  0  0  0
  8  9  1  0  0  0  0
  9 10  2  0  0  0  0
M  END
> <ChemID>
201339

> <CAS>
1745-81-9

> <Original_SMILES>
C=CCc1ccccc1O

> <preferred_name>
2-Allylphenol

> <dsstox_substance_id>
DTXSID3022164

> <dsstox_compound_id>
DTXCID802164

> <qc_level>


> <Canonical_QSARr>
C=CCC1=CC=CC=C1O

> <InChI_Code_QSARr>
InChI=1S/C9H10O/c1-2-5-8-6-3-4-7-9(8)10/h2-4,6-7,10H,1,5H2

> <InChI Key_QSARr>
QIRNGVVZBINFMX-UHFFFAOYSA-N

> <Salt_Solvent>


> <Salt_Solvent_ID>
0

> <MPID>
101232

> <Tr_1_Tst_0>
1

> <Ready_Biodeg>
1.0

$$$$
Row1198
  Mrv171c012251911052D          

 10 10  0  0  0  0            999 V2000
   -1.3966   -2.0625    0.0000 Cl  0  0  0  0  0  0  0  0  0  0  0  0
   -0.6821   -1.6500    0.0000 C   0  0  0  0  0  0  0  0  0  0  0  0
   -0.6821   -0.8250    0.0000 C   0  0  0  0  0  0  0  0  0  0  0  0
    0.0324   -0.4125    0.0000 C   0  0  0  0  0  0  0  0  0  0  0  0
    0.0324    0.4125    0.0000 C   0  0  0  0  0  0  0  0  0  0  0  0
   -0.6821    0.8250    0.0000 C   0  0  0  0  0  0  0  0  0  0  0  0
   -0.6821    1.6500    0.0000 C   0  0  0  0  0  0  0  0  0  0  0  0
   -1.3966    2.0625    0.0000 C   0  0  0  0  0  0  0  0  0  0  0  0
   -1.3966    0.4125    0.0000 C   0  0  0  0  0  0  0  0  0  0  0  0
   -1.3966   -0.4125    0.0000 C   0  0  0  0  0  0  0  0  0  0  0  0
  1  2  1  0  0  0  0
  2  3  1  0  0  0  0
  4  3  2  0  0  0  0
  5  4  1  0  0  0  0
  6  5  2  0  0  0  0
  6  7  1  0  0  0  0
  7  8  2  0  0  0  0
  9  6  1  0  0  0  0
 10  9  2  0  0  0  0
  3 10  1  0  0  0  0
M  END
> <ChemID>
201341

> <CAS>
1592-20-7

> <Original_SMILES>
C=Cc1ccc(CCl)cc1

> <preferred_name>
Benzene, 1-(chloromethyl)-4-ethenyl-

> <dsstox_substance_id>
DTXSID2061808

> <dsstox_compound_id>
DTXCID4035124

> <qc_level>


> <Canonical_QSARr>
C=CC1C=CC(CCl)=CC=1

> <InChI_Code_QSARr>
InChI=1S/C9H9Cl/c1-2-8-3-5-9(7-10)6-4-8/h2-6H,1,7H2

> <InChI Key_QSARr>
ZRZHXNCATOYMJH-UHFFFAOYSA-N

> <Salt_Solvent>


> <Salt_Solvent_ID>
0

> <MPID>
101233

> <Tr_1_Tst_0>
1

> <Ready_Biodeg>
0.0

$$$$
Row1199
  Mrv171c012251911052D          

 10 10  0  0  0  0            999 V2000
   -1.4842    0.8883    0.0000 C   0  0  0  0  0  0  0  0  0  0  0  0
   -1.4842    0.0633    0.0000 C   0  0  0  0  0  0  0  0  0  0  0  0
   -0.7698   -0.3492    0.0000 C   0  0  0  0  0  0  0  0  0  0  0  0
   -0.7698   -1.1742    0.0000 C   0  0  0  0  0  0  0  0  0  0  0  0
   -0.0553   -1.5867    0.0000 C   0  0  0  0  0  0  0  0  0  0  0  0
    0.6592   -1.1742    0.0000 C   0  0  0  0  0  0  0  0  0  0  0  0
    0.6592   -0.3492    0.0000 C   0  0  0  0  0  0  0  0  0  0  0  0
   -0.0553    0.0633    0.0000 C   0  0  0  0  0  0  0  0  0  0  0  0
   -0.0553    0.8883    0.0000 C   0  0  0  0  0  0  0  0  0  0  0  0
   -0.7698    1.3008    0.0000 C   0  0  0  0  0  0  0  0  0  0  0  0
  1  2  2  0  0  0  0
  2  3  1  0  0  0  0
  4  3  2  0  0  0  0
  5  4  1  0  0  0  0
  6  5  2  0  0  0  0
  7  6  1  0  0  0  0
  8  7  2  0  0  0  0
  3  8  1  0  0  0  0
  8  9  1  0  0  0  0
  9 10  2  0  0  0  0
M  END
> <ChemID>
201343

> <CAS>
91-14-5

> <Original_SMILES>
C=Cc1ccccc1C=C

> <preferred_name>


> <dsstox_substance_id>
DTXSID30110005

> <dsstox_compound_id>
DTXCID605216

> <qc_level>


> <Canonical_QSARr>
C=CC1=CC=CC=C1C=C

> <InChI_Code_QSARr>
InChI=1S/C10H10/c1-3-9-7-5-6-8-10(9)4-2/h3-8H,1-2H2

> <InChI Key_QSARr>
MYRTYDVEIRVNKP-UHFFFAOYSA-N

> <Salt_Solvent>


> <Salt_Solvent_ID>
0

> <MPID>
101234

> <Tr_1_Tst_0>
1

> <Ready_Biodeg>
0.0

$$$$
Row1200
  Mrv171c012251911052D          

  5  4  0  0  0  0            999 V2000
    0.4567   -0.8795    0.0000 C   0  0  0  0  0  0  0  0  0  0  0  0
    0.0442   -0.1650    0.0000 C   0  0  0  0  0  0  0  0  0  0  0  0
    0.4567    0.5495    0.0000 C   0  0  0  0  0  0  0  0  0  0  0  0
   -0.7808   -0.1650    0.0000 C   0  0  0  0  0  0  0  0  0  0  0  0
   -1.6058   -0.1650    0.0000 N   0  0  0  0  0  0  0  0  0  0  0  0
  1  2  1  0  0  0  0
  2  3  2  0  0  0  0
  2  4  1  0  0  0  0
  4  5  3  0  0  0  0
M  END
> <ChemID>
201345

> <CAS>
126-98-7

> <Original_SMILES>
CC(=C)C#N

> <preferred_name>
Methacrylonitrile

> <dsstox_substance_id>
DTXSID1024176

> <dsstox_compound_id>
DTXCID104176

> <qc_level>


> <Canonical_QSARr>
CC(=C)C#N

> <InChI_Code_QSARr>
InChI=1S/C4H5N/c1-4(2)3-5/h1H2,2H3

> <InChI Key_QSARr>
GYCMBHHDWRMZGG-UHFFFAOYSA-N

> <Salt_Solvent>


> <Salt_Solvent_ID>
0

> <MPID>
101235

> <Tr_1_Tst_0>
1

> <Ready_Biodeg>
1.0

$$$$
Row1201
  Mrv171c012251911052D          

 10  9  0  0  0  0            999 V2000
   -2.0558   -1.4437    0.0000 C   0  0  0  0  0  0  0  0  0  0  0  0
   -1.3413   -1.0312    0.0000 C   0  0  0  0  0  0  0  0  0  0  0  0
   -0.6269   -1.4437    0.0000 C   0  0  0  0  0  0  0  0  0  0  0  0
   -1.3413   -0.2062    0.0000 C   0  0  0  0  0  0  0  0  0  0  0  0
   -2.0558    0.2063    0.0000 O   0  0  0  0  0  0  0  0  0  0  0  0
   -0.6269    0.2063    0.0000 O   0  0  0  0  0  0  0  0  0  0  0  0
   -0.6269    1.0313    0.0000 C   0  0  0  0  0  0  0  0  0  0  0  0
   -0.6269    1.8563    0.0000 C   0  0  0  0  0  0  0  0  0  0  0  0
    0.1981    1.0313    0.0000 C   0  0  0  0  0  0  0  0  0  0  0  0
   -1.4519    1.0313    0.0000 C   0  0  0  0  0  0  0  0  0  0  0  0
  1  2  1  0  0  0  0
  2  3  2  0  0  0  0
  2  4  1  0  0  0  0
  4  5  2  0  0  0  0
  4  6  1  0  0  0  0
  6  7  1  0  0  0  0
  7  8  1  0  0  0  0
  7  9  1  0  0  0  0
  7 10  1  0  0  0  0
M  END
> <ChemID>
201347

> <CAS>
585-07-9

> <Original_SMILES>
CC(=C)C(=O)OC(C)(C)C

> <preferred_name>
tert-Butyl methacrylate

> <dsstox_substance_id>
DTXSID3060405

> <dsstox_compound_id>
DTXCID8042399

> <qc_level>


> <Canonical_QSARr>
CC(=C)C(=O)OC(C)(C)C

> <InChI_Code_QSARr>
InChI=1S/C8H14O2/c1-6(2)7(9)10-8(3,4)5/h1H2,2-5H3

> <InChI Key_QSARr>
SJMYWORNLPSJQO-UHFFFAOYSA-N

> <Salt_Solvent>


> <Salt_Solvent_ID>
0

> <MPID>
101236

> <Tr_1_Tst_0>
1

> <Ready_Biodeg>
0.0

$$$$
Row1202
  Mrv171c012251911052D          

 12 12  0  0  0  0            999 V2000
    1.5890    2.0648    0.0000 C   0  0  0  0  0  0  0  0  0  0  0  0
    0.8745    1.6523    0.0000 C   0  0  0  0  0  0  0  0  0  0  0  0
    0.1600    2.0648    0.0000 C   0  0  0  0  0  0  0  0  0  0  0  0
    0.8745    0.8273    0.0000 C   0  0  0  0  0  0  0  0  0  0  0  0
    1.5890    0.4148    0.0000 O   0  0  0  0  0  0  0  0  0  0  0  0
    0.1600    0.4148    0.0000 O   0  0  0  0  0  0  0  0  0  0  0  0
    0.1600   -0.4102    0.0000 C   0  0  0  0  0  0  0  0  0  0  0  0
   -0.5544   -0.8227    0.0000 C   0  0  0  0  0  0  0  0  0  0  0  0
   -0.5544   -1.6477    0.0000 C   0  0  0  0  0  0  0  0  0  0  0  0
    0.1600   -2.0602    0.0000 C   0  0  0  0  0  0  0  0  0  0  0  0
    0.8745   -1.6477    0.0000 C   0  0  0  0  0  0  0  0  0  0  0  0
    0.8745   -0.8227    0.0000 C   0  0  0  0  0  0  0  0  0  0  0  0
  1  2  1  0  0  0  0
  2  3  2  0  0  0  0
  2  4  1  0  0  0  0
  4  5  2  0  0  0  0
  4  6  1  0  0  0  0
  6  7  1  0  0  0  0
  8  7  1  0  0  0  0
  9  8  1  0  0  0  0
 10  9  1  0  0  0  0
 11 10  1  0  0  0  0
 12 11  1  0  0  0  0
  7 12  1  0  0  0  0
M  END
> <ChemID>
201348

> <CAS>
101-43-9

> <Original_SMILES>
CC(=C)C(=O)OC1CCCCC1

> <preferred_name>
Cyclohexyl methacrylate

> <dsstox_substance_id>
DTXSID7051507

> <dsstox_compound_id>
DTXCID8030055

> <qc_level>


> <Canonical_QSARr>
CC(=C)C(=O)OC1CCCCC1

> <InChI_Code_QSARr>
InChI=1S/C10H16O2/c1-8(2)10(11)12-9-6-4-3-5-7-9/h9H,1,3-7H2,2H3

> <InChI Key_QSARr>
OIWOHHBRDFKZNC-UHFFFAOYSA-N

> <Salt_Solvent>


> <Salt_Solvent_ID>
0

> <MPID>
101237

> <Tr_1_Tst_0>
0

> <Ready_Biodeg>
1.0

$$$$
Row1203
  Mrv171c012251911052D          

 10  9  0  0  0  0            999 V2000
   -0.7557    0.7315    0.0000 C   0  0  0  0  0  0  0  0  0  0  0  0
   -0.0412    0.3190    0.0000 C   0  0  0  0  0  0  0  0  0  0  0  0
   -0.0412   -0.5060    0.0000 O   0  0  0  0  0  0  0  0  0  0  0  0
    0.6732    0.7315    0.0000 C   0  0  0  0  0  0  0  0  0  0  0  0
    1.3877    0.3190    0.0000 O   0  0  0  0  0  0  0  0  0  0  0  0
    2.1022    0.7315    0.0000 C   0  0  0  0  0  0  0  0  0  0  0  0
    2.1022    1.5565    0.0000 O   0  0  0  0  0  0  0  0  0  0  0  0
    2.8166    0.3190    0.0000 C   0  0  0  0  0  0  0  0  0  0  0  0
    3.5311    0.7315    0.0000 C   0  0  0  0  0  0  0  0  0  0  0  0
    2.8166   -0.5060    0.0000 C   0  0  0  0  0  0  0  0  0  0  0  0
  1  2  1  0  0  0  0
  2  3  1  0  0  0  0
  2  4  1  0  0  0  0
  4  5  1  0  0  0  0
  5  6  1  0  0  0  0
  6  7  2  0  0  0  0
  6  8  1  0  0  0  0
  8  9  1  0  0  0  0
  8 10  2  0  0  0  0
M  END
> <ChemID>
201349

> <CAS>
923-26-2

> <Original_SMILES>
CC(=C)C(=O)OCC(C)O

> <preferred_name>
2-Hydroxypropyl 2-methylacrylate

> <dsstox_substance_id>
DTXSID1029629

> <dsstox_compound_id>
DTXCID805934

> <qc_level>


> <Canonical_QSARr>
CC(=C)C(=O)OCC(C)O

> <InChI_Code_QSARr>
InChI=1S/C7H12O3/c1-5(2)7(9)10-4-6(3)8/h6,8H,1,4H2,2-3H3

> <InChI Key_QSARr>
VHSHLMUCYSAUQU-UHFFFAOYSA-N

> <Salt_Solvent>


> <Salt_Solvent_ID>
0

> <MPID>
101238

> <Tr_1_Tst_0>
1

> <Ready_Biodeg>
1.0

$$$$
Row1204
  Mrv171c012251911052D          

 14 13  0  0  0  0            999 V2000
   -3.7665    0.5794    0.0000 C   0  0  0  0  0  0  0  0  0  0  0  0
   -3.0521    0.9919    0.0000 C   0  0  0  0  0  0  0  0  0  0  0  0
   -2.3376    0.5794    0.0000 C   0  0  0  0  0  0  0  0  0  0  0  0
   -1.6231    0.9919    0.0000 C   0  0  0  0  0  0  0  0  0  0  0  0
   -0.9087    0.5794    0.0000 C   0  0  0  0  0  0  0  0  0  0  0  0
   -0.9087   -0.2456    0.0000 C   0  0  0  0  0  0  0  0  0  0  0  0
   -0.1942   -0.6581    0.0000 C   0  0  0  0  0  0  0  0  0  0  0  0
   -0.1942    0.9919    0.0000 C   0  0  0  0  0  0  0  0  0  0  0  0
    0.5203    0.5794    0.0000 O   0  0  0  0  0  0  0  0  0  0  0  0
    1.2348    0.9919    0.0000 C   0  0  0  0  0  0  0  0  0  0  0  0
    1.2348    1.8169    0.0000 O   0  0  0  0  0  0  0  0  0  0  0  0
    1.9492    0.5794    0.0000 C   0  0  0  0  0  0  0  0  0  0  0  0
    2.6637    0.9919    0.0000 C   0  0  0  0  0  0  0  0  0  0  0  0
    1.9492   -0.2456    0.0000 C   0  0  0  0  0  0  0  0  0  0  0  0
  1  2  1  0  0  0  0
  2  3  1  0  0  0  0
  3  4  1  0  0  0  0
  4  5  1  0  0  0  0
  5  6  1  0  0  0  0
  6  7  1  0  0  0  0
  5  8  1  0  0  0  0
  8  9  1  0  0  0  0
  9 10  1  0  0  0  0
 10 11  2  0  0  0  0
 10 12  1  0  0  0  0
 12 13  1  0  0  0  0
 12 14  2  0  0  0  0
M  END
> <ChemID>
201350

> <CAS>
688-84-6

> <Original_SMILES>
CC(=C)C(=O)OCC(CCCC)CC

> <preferred_name>
2-Ethylhexyl methacrylate

> <dsstox_substance_id>
DTXSID3027293

> <dsstox_compound_id>
DTXCID007293

> <qc_level>


> <Canonical_QSARr>
CC(=C)C(=O)OCC(CCCC)CC

> <InChI_Code_QSARr>
InChI=1S/C12H22O2/c1-5-7-8-11(6-2)9-14-12(13)10(3)4/h11H,3,5-9H2,1-2,4H3

> <InChI Key_QSARr>
WDQMWEYDKDCEHT-UHFFFAOYSA-N

> <Salt_Solvent>


> <Salt_Solvent_ID>
0

> <MPID>
101239

> <Tr_1_Tst_0>
1

> <Ready_Biodeg>
1.0

$$$$
Row1205
  Mrv171c012251911052D          

  9  8  0  0  0  0            999 V2000
   -3.0960    0.5042    0.0000 C   0  0  0  0  0  0  0  0  0  0  0  0
   -2.3816    0.0917    0.0000 C   0  0  0  0  0  0  0  0  0  0  0  0
   -2.3816   -0.7333    0.0000 C   0  0  0  0  0  0  0  0  0  0  0  0
   -1.6671    0.5042    0.0000 C   0  0  0  0  0  0  0  0  0  0  0  0
   -1.6671    1.3292    0.0000 O   0  0  0  0  0  0  0  0  0  0  0  0
   -0.9526    0.0917    0.0000 O   0  0  0  0  0  0  0  0  0  0  0  0
   -0.2382    0.5042    0.0000 C   0  0  0  0  0  0  0  0  0  0  0  0
    0.4763    0.0917    0.0000 C   0  0  0  0  0  0  0  0  0  0  0  0
    1.1908    0.5042    0.0000 C   0  0  0  0  0  0  0  0  0  0  0  0
  1  2  1  0  0  0  0
  2  3  2  0  0  0  0
  2  4  1  0  0  0  0
  4  5  2  0  0  0  0
  4  6  1  0  0  0  0
  6  7  1  0  0  0  0
  7  8  1  0  0  0  0
  8  9  2  0  0  0  0
M  END
> <ChemID>
201352

> <CAS>
96-05-9

> <Original_SMILES>
CC(=C)C(=O)OCC=C

> <preferred_name>
Allyl methacrylate

> <dsstox_substance_id>
DTXSID2021816

> <dsstox_compound_id>
DTXCID401816

> <qc_level>


> <Canonical_QSARr>
CC(=C)C(=O)OCC=C

> <InChI_Code_QSARr>
InChI=1S/C7H10O2/c1-4-5-9-7(8)6(2)3/h4H,1-2,5H2,3H3

> <InChI Key_QSARr>
FBCQUCJYYPMKRO-UHFFFAOYSA-N

> <Salt_Solvent>


> <Salt_Solvent_ID>
0

> <MPID>
101240

> <Tr_1_Tst_0>
0

> <Ready_Biodeg>
1.0

$$$$
Row1206
  Mrv171c012251911052D          

 10  9  0  0  0  0            999 V2000
   -4.1064   -0.6349    0.0000 C   0  0  0  0  0  0  0  0  0  0  0  0
   -3.3920   -0.2224    0.0000 C   0  0  0  0  0  0  0  0  0  0  0  0
   -2.6775   -0.6349    0.0000 C   0  0  0  0  0  0  0  0  0  0  0  0
   -1.9630   -0.2224    0.0000 C   0  0  0  0  0  0  0  0  0  0  0  0
   -1.2486   -0.6349    0.0000 O   0  0  0  0  0  0  0  0  0  0  0  0
   -0.5341   -0.2224    0.0000 C   0  0  0  0  0  0  0  0  0  0  0  0
   -0.5341    0.6026    0.0000 O   0  0  0  0  0  0  0  0  0  0  0  0
    0.1804   -0.6349    0.0000 C   0  0  0  0  0  0  0  0  0  0  0  0
    0.8949   -0.2224    0.0000 C   0  0  0  0  0  0  0  0  0  0  0  0
    0.1804   -1.4599    0.0000 C   0  0  0  0  0  0  0  0  0  0  0  0
  1  2  1  0  0  0  0
  2  3  1  0  0  0  0
  3  4  1  0  0  0  0
  4  5  1  0  0  0  0
  5  6  1  0  0  0  0
  6  7  2  0  0  0  0
  6  8  1  0  0  0  0
  8  9  1  0  0  0  0
  8 10  2  0  0  0  0
M  END
> <ChemID>
201353

> <CAS>
97-88-1

> <Original_SMILES>
CC(=C)C(=O)OCCCC

> <preferred_name>
Butyl methacrylate

> <dsstox_substance_id>
DTXSID4024696

> <dsstox_compound_id>
DTXCID704696

> <qc_level>


> <Canonical_QSARr>
CC(=C)C(=O)OCCCC

> <InChI_Code_QSARr>
InChI=1S/C8H14O2/c1-4-5-6-10-8(9)7(2)3/h2,4-6H2,1,3H3

> <InChI Key_QSARr>
SOGAXMICEFXMKE-UHFFFAOYSA-N

> <Salt_Solvent>


> <Salt_Solvent_ID>
0

> <MPID>
101241

> <Tr_1_Tst_0>
1

> <Ready_Biodeg>
1.0

$$$$
Row1207
  Mrv171c012251911052D          

 13 12  0  0  0  0            999 V2000
   -1.2812   -0.6416    0.0000 C   0  0  0  0  0  0  0  0  0  0  0  0
   -0.4711   -0.7976    0.0000 C   0  0  0  0  0  0  0  0  0  0  0  0
    0.0690   -0.1739    0.0000 N   0  0  0  0  0  0  0  0  0  0  0  0
   -0.2010    0.6056    0.0000 C   0  0  0  0  0  0  0  0  0  0  0  0
    0.3391    1.2293    0.0000 C   0  0  0  0  0  0  0  0  0  0  0  0
    0.8792   -0.3298    0.0000 C   0  0  0  0  0  0  0  0  0  0  0  0
    1.4193    0.2938    0.0000 C   0  0  0  0  0  0  0  0  0  0  0  0
    2.2294    0.1379    0.0000 O   0  0  0  0  0  0  0  0  0  0  0  0
    2.7695    0.7615    0.0000 C   0  0  0  0  0  0  0  0  0  0  0  0
    2.4994    1.5411    0.0000 O   0  0  0  0  0  0  0  0  0  0  0  0
    3.5796    0.6056    0.0000 C   0  0  0  0  0  0  0  0  0  0  0  0
    4.1197    1.2293    0.0000 C   0  0  0  0  0  0  0  0  0  0  0  0
    3.8497   -0.1739    0.0000 C   0  0  0  0  0  0  0  0  0  0  0  0
  1  2  1  0  0  0  0
  2  3  1  0  0  0  0
  3  4  1  0  0  0  0
  4  5  1  0  0  0  0
  3  6  1  0  0  0  0
  6  7  1  0  0  0  0
  7  8  1  0  0  0  0
  8  9  1  0  0  0  0
  9 10  2  0  0  0  0
  9 11  1  0  0  0  0
 11 12  1  0  0  0  0
 11 13  2  0  0  0  0
M  END
> <ChemID>
201355

> <CAS>
105-16-8

> <Original_SMILES>
CC(=C)C(=O)OCCN(CC)CC

> <preferred_name>
2-(Diethylamino)ethyl methacrylate

> <dsstox_substance_id>
DTXSID4026713

> <dsstox_compound_id>
DTXCID506713

> <qc_level>


> <Canonical_QSARr>
CC(=C)C(=O)OCCN(CC)CC

> <InChI_Code_QSARr>
InChI=1S/C10H19NO2/c1-5-11(6-2)7-8-13-10(12)9(3)4/h3,5-8H2,1-2,4H3

> <InChI Key_QSARr>
SJIXRGNQPBQWMK-UHFFFAOYSA-N

> <Salt_Solvent>


> <Salt_Solvent_ID>
0

> <MPID>
101242

> <Tr_1_Tst_0>
1

> <Ready_Biodeg>
1.0

$$$$
Row1208
  Mrv171c012251911052D          

 17 16  0  0  0  0            999 V2000
   -5.0013   -0.2669    0.0000 C   0  0  0  0  0  0  0  0  0  0  0  0
   -4.2869   -0.6794    0.0000 C   0  0  0  0  0  0  0  0  0  0  0  0
   -4.2869   -1.5044    0.0000 C   0  0  0  0  0  0  0  0  0  0  0  0
   -3.5724   -0.2669    0.0000 C   0  0  0  0  0  0  0  0  0  0  0  0
   -3.5724    0.5581    0.0000 O   0  0  0  0  0  0  0  0  0  0  0  0
   -2.8579   -0.6794    0.0000 O   0  0  0  0  0  0  0  0  0  0  0  0
   -2.1435   -0.2669    0.0000 C   0  0  0  0  0  0  0  0  0  0  0  0
   -1.4290   -0.6794    0.0000 C   0  0  0  0  0  0  0  0  0  0  0  0
   -0.7145   -0.2669    0.0000 O   0  0  0  0  0  0  0  0  0  0  0  0
   -0.0000   -0.6794    0.0000 C   0  0  0  0  0  0  0  0  0  0  0  0
    0.7144   -0.2669    0.0000 C   0  0  0  0  0  0  0  0  0  0  0  0
    1.4289   -0.6794    0.0000 O   0  0  0  0  0  0  0  0  0  0  0  0
    2.1434   -0.2669    0.0000 C   0  0  0  0  0  0  0  0  0  0  0  0
    2.1434    0.5581    0.0000 O   0  0  0  0  0  0  0  0  0  0  0  0
    2.8578   -0.6794    0.0000 C   0  0  0  0  0  0  0  0  0  0  0  0
    3.5723   -0.2669    0.0000 C   0  0  0  0  0  0  0  0  0  0  0  0
    2.8578   -1.5044    0.0000 C   0  0  0  0  0  0  0  0  0  0  0  0
  1  2  1  0  0  0  0
  2  3  2  0  0  0  0
  2  4  1  0  0  0  0
  4  5  2  0  0  0  0
  4  6  1  0  0  0  0
  6  7  1  0  0  0  0
  7  8  1  0  0  0  0
  8  9  1  0  0  0  0
  9 10  1  0  0  0  0
 10 11  1  0  0  0  0
 11 12  1  0  0  0  0
 12 13  1  0  0  0  0
 13 14  2  0  0  0  0
 13 15  1  0  0  0  0
 15 16  1  0  0  0  0
 15 17  2  0  0  0  0
M  END
> <ChemID>
201357

> <CAS>
2358-84-1

> <Original_SMILES>
CC(=C)C(=O)OCCOCCOC(=O)C(C)=C

> <preferred_name>
Di(ethylene glycol) dimethacrylate

> <dsstox_substance_id>
DTXSID8044882

> <dsstox_compound_id>
DTXCID6024882

> <qc_level>


> <Canonical_QSARr>
CC(=C)C(=O)OCCOCCOC(=O)C(C)=C

> <InChI_Code_QSARr>
InChI=1S/C12H18O5/c1-9(2)11(13)16-7-5-15-6-8-17-12(14)10(3)4/h1,3,5-8H2,2,4H3

> <InChI Key_QSARr>
XFCMNSHQOZQILR-UHFFFAOYSA-N

> <Salt_Solvent>


> <Salt_Solvent_ID>
0

> <MPID>
101243

> <Tr_1_Tst_0>
1

> <Ready_Biodeg>
1.0

$$$$
Row1209
  Mrv171c012251911052D          

 13 13  0  0  0  0            999 V2000
   -1.8680   -0.8057    0.0000 C   0  0  0  0  0  0  0  0  0  0  0  0
   -1.1535   -0.3932    0.0000 C   0  0  0  0  0  0  0  0  0  0  0  0
   -1.1535    0.4318    0.0000 C   0  0  0  0  0  0  0  0  0  0  0  0
   -0.4390   -0.8057    0.0000 C   0  0  0  0  0  0  0  0  0  0  0  0
   -0.4390   -1.6307    0.0000 O   0  0  0  0  0  0  0  0  0  0  0  0
    0.2754   -0.3932    0.0000 O   0  0  0  0  0  0  0  0  0  0  0  0
    0.9899   -0.8057    0.0000 C   0  0  0  0  0  0  0  0  0  0  0  0
    1.7044   -0.3932    0.0000 C   0  0  0  0  0  0  0  0  0  0  0  0
    2.4188   -0.8057    0.0000 C   0  0  0  0  0  0  0  0  0  0  0  0
    3.1333   -0.3932    0.0000 C   0  0  0  0  0  0  0  0  0  0  0  0
    3.1333    0.4318    0.0000 C   0  0  0  0  0  0  0  0  0  0  0  0
    2.4188    0.8443    0.0000 C   0  0  0  0  0  0  0  0  0  0  0  0
    1.7044    0.4318    0.0000 C   0  0  0  0  0  0  0  0  0  0  0  0
  1  2  1  0  0  0  0
  2  3  2  0  0  0  0
  2  4  1  0  0  0  0
  4  5  2  0  0  0  0
  4  6  1  0  0  0  0
  6  7  1  0  0  0  0
  7  8  1  0  0  0  0
  9  8  2  0  0  0  0
 10  9  1  0  0  0  0
 11 10  2  0  0  0  0
 12 11  1  0  0  0  0
 13 12  2  0  0  0  0
  8 13  1  0  0  0  0
M  END
> <ChemID>
201358

> <CAS>
2495-37-6

> <Original_SMILES>
CC(=C)C(=O)OCc1ccccc1

> <preferred_name>
Benzyl methacrylate

> <dsstox_substance_id>
DTXSID0022193

> <dsstox_compound_id>
DTXCID302193

> <qc_level>


> <Canonical_QSARr>
CC(=C)C(=O)OCC1C=CC=CC=1

> <InChI_Code_QSARr>
InChI=1S/C11H12O2/c1-9(2)11(12)13-8-10-6-4-3-5-7-10/h3-7H,1,8H2,2H3

> <InChI Key_QSARr>
AOJOEFVRHOZDFN-UHFFFAOYSA-N

> <Salt_Solvent>


> <Salt_Solvent_ID>
0

> <MPID>
101244

> <Tr_1_Tst_0>
1

> <Ready_Biodeg>
1.0

$$$$
Row1210
  Mrv171c012251911052D          

 10 10  0  0  0  0            999 V2000
   -1.1270   -1.6500    0.0000 C   0  0  0  0  0  0  0  0  0  0  0  0
   -0.4125   -1.2375    0.0000 C   0  0  0  0  0  0  0  0  0  0  0  0
    0.3019   -1.6500    0.0000 C   0  0  0  0  0  0  0  0  0  0  0  0
   -0.4125   -0.4125    0.0000 C   0  0  0  0  0  0  0  0  0  0  0  0
    0.3019    0.0000    0.0000 C   0  0  0  0  0  0  0  0  0  0  0  0
    0.3019    0.8250    0.0000 C   0  0  0  0  0  0  0  0  0  0  0  0
   -0.4125    1.2375    0.0000 C   0  0  0  0  0  0  0  0  0  0  0  0
   -0.4125    2.0625    0.0000 O   0  0  0  0  0  0  0  0  0  0  0  0
   -1.1270    0.8250    0.0000 C   0  0  0  0  0  0  0  0  0  0  0  0
   -1.1270    0.0000    0.0000 C   0  0  0  0  0  0  0  0  0  0  0  0
  1  2  1  0  0  0  0
  2  3  2  0  0  0  0
  2  4  1  0  0  0  0
  5  4  2  0  0  0  0
  6  5  1  0  0  0  0
  7  6  2  0  0  0  0
  7  8  1  0  0  0  0
  9  7  1  0  0  0  0
 10  9  2  0  0  0  0
  4 10  1  0  0  0  0
M  END
> <ChemID>
201361

> <CAS>
4286-23-1

> <Original_SMILES>
CC(=C)c1ccc(O)cc1

> <preferred_name>


> <dsstox_substance_id>


> <dsstox_compound_id>


> <qc_level>


> <Canonical_QSARr>
CC(=C)C1C=CC(O)=CC=1

> <InChI_Code_QSARr>
InChI=1S/C9H10O/c1-7(2)8-3-5-9(10)6-4-8/h3-6,10H,1H2,2H3

> <InChI Key_QSARr>
JAGRUUPXPPLSRX-UHFFFAOYSA-N

> <Salt_Solvent>


> <Salt_Solvent_ID>
0

> <MPID>
101245

> <Tr_1_Tst_0>
1

> <Ready_Biodeg>
0.0

$$$$
Row1211
  Mrv171c012251911052D          

 54 57  0  0  0  0            999 V2000
    2.1434   -0.4125    0.0000 C   0  0  0  0  0  0  0  0  0  0  0  0
    2.8579    0.0000    0.0000 C   0  0  0  0  0  0  0  0  0  0  0  0
    2.8579    0.8250    0.0000 O   0  0  0  0  0  0  0  0  0  0  0  0
    3.5724   -0.4125    0.0000 C   0  0  0  0  0  0  0  0  0  0  0  0
    3.5724   -1.2375    0.0000 N   0  0  0  0  0  0  0  0  0  0  0  0
    4.2868   -1.6500    0.0000 N   0  0  0  0  0  0  0  0  0  0  0  0
    4.2868   -2.4750    0.0000 C   0  0  0  0  0  0  0  0  0  0  0  0
    5.0013   -2.8875    0.0000 C   0  0  0  0  0  0  0  0  0  0  0  0
    5.0013   -3.7125    0.0000 C   0  0  0  0  0  0  0  0  0  0  0  0
    4.2868   -4.1250    0.0000 C   0  0  0  0  0  0  0  0  0  0  0  0
    3.5724   -3.7125    0.0000 C   0  0  0  0  0  0  0  0  0  0  0  0
    3.5724   -2.8875    0.0000 C   0  0  0  0  0  0  0  0  0  0  0  0
    2.8579   -2.4750    0.0000 Cl  0  0  0  0  0  0  0  0  0  0  0  0
    4.2868   -4.9500    0.0000 C   0  0  0  0  0  0  0  0  0  0  0  0
    5.0013   -5.3625    0.0000 C   0  0  0  0  0  0  0  0  0  0  0  0
    5.0013   -6.1875    0.0000 C   0  0  0  0  0  0  0  0  0  0  0  0
    5.7158   -6.6000    0.0000 Cl  0  0  0  0  0  0  0  0  0  0  0  0
    4.2868   -6.6000    0.0000 C   0  0  0  0  0  0  0  0  0  0  0  0
    3.5724   -6.1875    0.0000 C   0  0  0  0  0  0  0  0  0  0  0  0
    3.5724   -5.3625    0.0000 C   0  0  0  0  0  0  0  0  0  0  0  0
    4.2868   -7.4250    0.0000 N   0  0  0  0  0  0  0  0  0  0  0  0
    3.5724   -7.8375    0.0000 N   0  0  0  0  0  0  0  0  0  0  0  0
    3.5724   -8.6625    0.0000 C   0  0  0  0  0  0  0  0  0  0  0  0
    2.8579   -9.0750    0.0000 C   0  0  0  0  0  0  0  0  0  0  0  0
    2.1434   -8.6625    0.0000 O   0  0  0  0  0  0  0  0  0  0  0  0
    2.8579   -9.9000    0.0000 N   0  0  0  0  0  0  0  0  0  0  0  0
    2.1434  -10.3125    0.0000 C   0  0  0  0  0  0  0  0  0  0  0  0
    2.1434  -11.1375    0.0000 C   0  0  0  0  0  0  0  0  0  0  0  0
    1.4289  -11.5500    0.0000 C   0  0  0  0  0  0  0  0  0  0  0  0
    1.4289  -12.3750    0.0000 O   0  0  0  0  0  0  0  0  0  0  0  0
    0.7145  -12.7875    0.0000 C   0  0  0  0  0  0  0  0  0  0  0  0
    0.7145  -11.1375    0.0000 C   0  0  0  0  0  0  0  0  0  0  0  0
   -0.0000  -11.5500    0.0000 Cl  0  0  0  0  0  0  0  0  0  0  0  0
    0.7145  -10.3125    0.0000 C   0  0  0  0  0  0  0  0  0  0  0  0
    1.4289   -9.9000    0.0000 C   0  0  0  0  0  0  0  0  0  0  0  0
    1.4289   -9.0750    0.0000 O   0  0  0  0  0  0  0  0  0  0  0  0
    0.7145   -8.6625    0.0000 C   0  0  0  0  0  0  0  0  0  0  0  0
    4.2868   -9.0750    0.0000 C   0  0  0  0  0  0  0  0  0  0  0  0
    5.0013   -8.6625    0.0000 C   0  0  0  0  0  0  0  0  0  0  0  0
    4.2868   -9.9000    0.0000 O   0  0  0  0  0  0  0  0  0  0  0  0
    4.2868    0.0000    0.0000 C   0  0  0  0  0  0  0  0  0  0  0  0
    5.0013   -0.4125    0.0000 O   0  0  0  0  0  0  0  0  0  0  0  0
    4.2868    0.8250    0.0000 N   0  0  0  0  0  0  0  0  0  0  0  0
    5.0013    1.2375    0.0000 C   0  0  0  0  0  0  0  0  0  0  0  0
    5.0013    2.0625    0.0000 C   0  0  0  0  0  0  0  0  0  0  0  0
    5.7158    2.4750    0.0000 C   0  0  0  0  0  0  0  0  0  0  0  0
    5.7158    3.3000    0.0000 O   0  0  0  0  0  0  0  0  0  0  0  0
    6.4302    3.7125    0.0000 C   0  0  0  0  0  0  0  0  0  0  0  0
    6.4302    2.0625    0.0000 C   0  0  0  0  0  0  0  0  0  0  0  0
    7.1447    2.4750    0.0000 Cl  0  0  0  0  0  0  0  0  0  0  0  0
    6.4302    1.2375    0.0000 C   0  0  0  0  0  0  0  0  0  0  0  0
    5.7158    0.8250    0.0000 C   0  0  0  0  0  0  0  0  0  0  0  0
    5.7158    0.0000    0.0000 O   0  0  0  0  0  0  0  0  0  0  0  0
    6.4302   -0.4125    0.0000 C   0  0  0  0  0  0  0  0  0  0  0  0
  1  2  1  0  0  0  0
  2  3  2  0  0  0  0
  2  4  1  0  0  0  0
  5  4  1  4  0  0  0
  5  6  2  0  0  0  0
  6  7  1  0  0  0  0
  7  8  2  0  0  0  0
  8  9  1  0  0  0  0
  9 10  2  0  0  0  0
 10 11  1  0  0  0  0
 11 12  2  0  0  0  0
  7 12  1  0  0  0  0
 12 13  1  0  0  0  0
 10 14  1  0  0  0  0
 14 15  1  0  0  0  0
 15 16  2  0  0  0  0
 16 17  1  0  0  0  0
 16 18  1  0  0  0  0
 18 19  2  0  0  0  0
 19 20  1  0  0  0  0
 14 20  2  0  0  0  0
 21 18  1  4  0  0  0
 21 22  2  0  0  0  0
 22 23  1  0  0  0  0
 23 24  1  0  0  0  0
 24 25  2  0  0  0  0
 24 26  1  0  0  0  0
 26 27  1  0  0  0  0
 27 28  2  0  0  0  0
 28 29  1  0  0  0  0
 29 30  1  0  0  0  0
 30 31  1  0  0  0  0
 29 32  2  0  0  0  0
 32 33  1  0  0  0  0
 32 34  1  0  0  0  0
 34 35  2  0  0  0  0
 27 35  1  0  0  0  0
 35 36  1  0  0  0  0
 36 37  1  0  0  0  0
 23 38  1  0  0  0  0
 38 39  1  0  0  0  0
 38 40  2  0  0  0  0
  4 41  1  0  0  0  0
 41 42  2  0  0  0  0
 41 43  1  0  0  0  0
 43 44  1  0  0  0  0
 44 45  1  0  0  0  0
 45 46  2  0  0  0  0
 46 47  1  0  0  0  0
 47 48  1  0  0  0  0
 46 49  1  0  0  0  0
 49 50  1  0  0  0  0
 49 51  2  0  0  0  0
 51 52  1  0  0  0  0
 44 52  2  0  0  0  0
 52 53  1  0  0  0  0
 53 54  1  0  0  0  0
M  END
> <ChemID>
201363

> <CAS>
NOCAS_859915

> <Original_SMILES>
CC(=O)C(/N=N/c1ccc(cc1Cl)-c1cc(Cl)c(cc1)/N=N/C(C(=O)Nc1cc(OC)c(Cl)cc1OC)C(C)=O)C(=O)Nc1cc(OC)c(Cl)cc1OC

> <preferred_name>
C.I. Pigment Yellow 83

> <dsstox_substance_id>
DTXSID60859915

> <dsstox_compound_id>
DTXCID601453

> <qc_level>


> <Canonical_QSARr>
CC(=O)C(N=NC1=CC=C(C=C1Cl)C1C=C(Cl)C(=CC=1)N=NC(C(=O)NC1=CC(OC)=C(Cl)C=C1OC)C(C)=O)C(=O)NC1C=C(OC)C(Cl)=CC=1OC

> <InChI_Code_QSARr>
InChI=1S/C36H32Cl4N6O8/c1-17(47)33(35(49)41-27-15-29(51-3)23(39)13-31(27)53-5)45-43-25-9-7-19(11-21(25)37)20-8-10-26(22(38)12-20)44-46-34(18(2)48)36(50)42-28-16-30(52-4)24(40)14-32(28)54-6/h7-16,33-34H,1-6H3,(H,41,49)(H,42,50)

> <InChI Key_QSARr>
NKXPXRNUMARIMZ-UHFFFAOYSA-N

> <Salt_Solvent>


> <Salt_Solvent_ID>
0

> <MPID>
101246

> <Tr_1_Tst_0>
1

> <Ready_Biodeg>
0.0

$$$$
Row1212
  Mrv171c012251911052D          

 44 47  0  0  0  0            999 V2000
    2.1434   -0.4125    0.0000 C   0  0  0  0  0  0  0  0  0  0  0  0
    2.8579    0.0000    0.0000 C   0  0  0  0  0  0  0  0  0  0  0  0
    2.8579    0.8250    0.0000 O   0  0  0  0  0  0  0  0  0  0  0  0
    3.5724   -0.4125    0.0000 C   0  0  0  0  0  0  0  0  0  0  0  0
    3.5724   -1.2375    0.0000 N   0  0  0  0  0  0  0  0  0  0  0  0
    4.2868   -1.6500    0.0000 N   0  0  0  0  0  0  0  0  0  0  0  0
    4.2868   -2.4750    0.0000 C   0  0  0  0  0  0  0  0  0  0  0  0
    5.0013   -2.8875    0.0000 C   0  0  0  0  0  0  0  0  0  0  0  0
    5.0013   -3.7125    0.0000 C   0  0  0  0  0  0  0  0  0  0  0  0
    4.2868   -4.1250    0.0000 C   0  0  0  0  0  0  0  0  0  0  0  0
    3.5724   -3.7125    0.0000 C   0  0  0  0  0  0  0  0  0  0  0  0
    3.5724   -2.8875    0.0000 C   0  0  0  0  0  0  0  0  0  0  0  0
    2.8579   -2.4750    0.0000 Cl  0  0  0  0  0  0  0  0  0  0  0  0
    4.2868   -4.9500    0.0000 C   0  0  0  0  0  0  0  0  0  0  0  0
    5.0013   -5.3625    0.0000 C   0  0  0  0  0  0  0  0  0  0  0  0
    5.0013   -6.1875    0.0000 C   0  0  0  0  0  0  0  0  0  0  0  0
    5.7158   -6.6000    0.0000 Cl  0  0  0  0  0  0  0  0  0  0  0  0
    4.2868   -6.6000    0.0000 C   0  0  0  0  0  0  0  0  0  0  0  0
    3.5724   -6.1875    0.0000 C   0  0  0  0  0  0  0  0  0  0  0  0
    3.5724   -5.3625    0.0000 C   0  0  0  0  0  0  0  0  0  0  0  0
    4.2868   -7.4250    0.0000 N   0  0  0  0  0  0  0  0  0  0  0  0
    3.5724   -7.8375    0.0000 N   0  0  0  0  0  0  0  0  0  0  0  0
    3.5724   -8.6625    0.0000 C   0  0  0  0  0  0  0  0  0  0  0  0
    2.8579   -9.0750    0.0000 C   0  0  0  0  0  0  0  0  0  0  0  0
    2.1434   -8.6625    0.0000 O   0  0  0  0  0  0  0  0  0  0  0  0
    2.8579   -9.9000    0.0000 N   0  0  0  0  0  0  0  0  0  0  0  0
    2.1434  -10.3125    0.0000 C   0  0  0  0  0  0  0  0  0  0  0  0
    2.1434  -11.1375    0.0000 C   0  0  0  0  0  0  0  0  0  0  0  0
    1.4289  -11.5500    0.0000 C   0  0  0  0  0  0  0  0  0  0  0  0
    0.7145  -11.1375    0.0000 C   0  0  0  0  0  0  0  0  0  0  0  0
    0.7145  -10.3125    0.0000 C   0  0  0  0  0  0  0  0  0  0  0  0
    1.4289   -9.9000    0.0000 C   0  0  0  0  0  0  0  0  0  0  0  0
    4.2868   -9.0750    0.0000 C   0  0  0  0  0  0  0  0  0  0  0  0
    5.0013   -8.6625    0.0000 C   0  0  0  0  0  0  0  0  0  0  0  0
    4.2868   -9.9000    0.0000 O   0  0  0  0  0  0  0  0  0  0  0  0
    4.2868    0.0000    0.0000 C   0  0  0  0  0  0  0  0  0  0  0  0
    5.0013   -0.4125    0.0000 O   0  0  0  0  0  0  0  0  0  0  0  0
    4.2868    0.8250    0.0000 N   0  0  0  0  0  0  0  0  0  0  0  0
    5.0013    1.2375    0.0000 C   0  0  0  0  0  0  0  0  0  0  0  0
    5.0013    2.0625    0.0000 C   0  0  0  0  0  0  0  0  0  0  0  0
    5.7158    2.4750    0.0000 C   0  0  0  0  0  0  0  0  0  0  0  0
    6.4302    2.0625    0.0000 C   0  0  0  0  0  0  0  0  0  0  0  0
    6.4302    1.2375    0.0000 C   0  0  0  0  0  0  0  0  0  0  0  0
    5.7158    0.8250    0.0000 C   0  0  0  0  0  0  0  0  0  0  0  0
  1  2  1  0  0  0  0
  2  3  2  0  0  0  0
  2  4  1  0  0  0  0
  5  4  1  4  0  0  0
  5  6  2  0  0  0  0
  6  7  1  0  0  0  0
  7  8  2  0  0  0  0
  8  9  1  0  0  0  0
  9 10  2  0  0  0  0
 10 11  1  0  0  0  0
 11 12  2  0  0  0  0
  7 12  1  0  0  0  0
 12 13  1  0  0  0  0
 10 14  1  0  0  0  0
 14 15  1  0  0  0  0
 15 16  2  0  0  0  0
 16 17  1  0  0  0  0
 16 18  1  0  0  0  0
 18 19  2  0  0  0  0
 19 20  1  0  0  0  0
 14 20  2  0  0  0  0
 21 18  1  4  0  0  0
 21 22  2  0  0  0  0
 22 23  1  0  0  0  0
 23 24  1  0  0  0  0
 24 25  2  0  0  0  0
 24 26  1  0  0  0  0
 26 27  1  0  0  0  0
 27 28  1  0  0  0  0
 28 29  2  0  0  0  0
 29 30  1  0  0  0  0
 30 31  2  0  0  0  0
 31 32  1  0  0  0  0
 27 32  2  0  0  0  0
 23 33  1  0  0  0  0
 33 34  1  0  0  0  0
 33 35  2  0  0  0  0
  4 36  1  0  0  0  0
 36 37  2  0  0  0  0
 36 38  1  0  0  0  0
 38 39  1  0  0  0  0
 39 40  1  0  0  0  0
 40 41  2  0  0  0  0
 41 42  1  0  0  0  0
 42 43  2  0  0  0  0
 43 44  1  0  0  0  0
 39 44  2  0  0  0  0
M  END
> <ChemID>
201364

> <CAS>
NOCAS_859966

> <Original_SMILES>
CC(=O)C(/N=N/c1ccc(cc1Cl)-c1cc(Cl)c(cc1)/N=N/C(C(=O)Nc1ccccc1)C(C)=O)C(=O)Nc1ccccc1

> <preferred_name>
C.I. Pigment Yellow 12

> <dsstox_substance_id>
DTXSID70859966

> <dsstox_compound_id>
DTXCID801451

> <qc_level>


> <Canonical_QSARr>
CC(=O)C(N=NC1=CC=C(C=C1Cl)C1C=C(Cl)C(=CC=1)N=NC(C(=O)NC1C=CC=CC=1)C(C)=O)C(=O)NC1C=CC=CC=1

> <InChI_Code_QSARr>
InChI=1S/C32H26Cl2N6O4/c1-19(41)29(31(43)35-23-9-5-3-6-10-23)39-37-27-15-13-21(17-25(27)33)22-14-16-28(26(34)18-22)38-40-30(20(2)42)32(44)36-24-11-7-4-8-12-24/h3-18,29-30H,1-2H3,(H,35,43)(H,36,44)

> <InChI Key_QSARr>
GNCOVOVCHIHPHP-UHFFFAOYSA-N

> <Salt_Solvent>


> <Salt_Solvent_ID>
0

> <MPID>
101247

> <Tr_1_Tst_0>
0

> <Ready_Biodeg>
0.0

$$$$
Row1213
  Mrv171c012251911052D          

 46 49  0  0  0  0            999 V2000
    2.1434   -0.4125    0.0000 C   0  0  0  0  0  0  0  0  0  0  0  0
    2.8579    0.0000    0.0000 C   0  0  0  0  0  0  0  0  0  0  0  0
    2.8579    0.8250    0.0000 O   0  0  0  0  0  0  0  0  0  0  0  0
    3.5724   -0.4125    0.0000 C   0  0  0  0  0  0  0  0  0  0  0  0
    3.5724   -1.2375    0.0000 N   0  0  0  0  0  0  0  0  0  0  0  0
    4.2868   -1.6500    0.0000 N   0  0  0  0  0  0  0  0  0  0  0  0
    4.2868   -2.4750    0.0000 C   0  0  0  0  0  0  0  0  0  0  0  0
    5.0013   -2.8875    0.0000 C   0  0  0  0  0  0  0  0  0  0  0  0
    5.0013   -3.7125    0.0000 C   0  0  0  0  0  0  0  0  0  0  0  0
    4.2868   -4.1250    0.0000 C   0  0  0  0  0  0  0  0  0  0  0  0
    3.5724   -3.7125    0.0000 C   0  0  0  0  0  0  0  0  0  0  0  0
    3.5724   -2.8875    0.0000 C   0  0  0  0  0  0  0  0  0  0  0  0
    2.8579   -2.4750    0.0000 Cl  0  0  0  0  0  0  0  0  0  0  0  0
    4.2868   -4.9500    0.0000 C   0  0  0  0  0  0  0  0  0  0  0  0
    5.0013   -5.3625    0.0000 C   0  0  0  0  0  0  0  0  0  0  0  0
    5.0013   -6.1875    0.0000 C   0  0  0  0  0  0  0  0  0  0  0  0
    5.7158   -6.6000    0.0000 Cl  0  0  0  0  0  0  0  0  0  0  0  0
    4.2868   -6.6000    0.0000 C   0  0  0  0  0  0  0  0  0  0  0  0
    3.5724   -6.1875    0.0000 C   0  0  0  0  0  0  0  0  0  0  0  0
    3.5724   -5.3625    0.0000 C   0  0  0  0  0  0  0  0  0  0  0  0
    4.2868   -7.4250    0.0000 N   0  0  0  0  0  0  0  0  0  0  0  0
    3.5724   -7.8375    0.0000 N   0  0  0  0  0  0  0  0  0  0  0  0
    3.5724   -8.6625    0.0000 C   0  0  0  0  0  0  0  0  0  0  0  0
    2.8579   -9.0750    0.0000 C   0  0  0  0  0  0  0  0  0  0  0  0
    2.1434   -8.6625    0.0000 O   0  0  0  0  0  0  0  0  0  0  0  0
    2.8579   -9.9000    0.0000 N   0  0  0  0  0  0  0  0  0  0  0  0
    2.1434  -10.3125    0.0000 C   0  0  0  0  0  0  0  0  0  0  0  0
    2.1434  -11.1375    0.0000 C   0  0  0  0  0  0  0  0  0  0  0  0
    1.4289  -11.5500    0.0000 C   0  0  0  0  0  0  0  0  0  0  0  0
    0.7145  -11.1375    0.0000 C   0  0  0  0  0  0  0  0  0  0  0  0
    0.7145  -10.3125    0.0000 C   0  0  0  0  0  0  0  0  0  0  0  0
    1.4289   -9.9000    0.0000 C   0  0  0  0  0  0  0  0  0  0  0  0
    1.4289   -9.0750    0.0000 C   0  0  0  0  0  0  0  0  0  0  0  0
    4.2868   -9.0750    0.0000 C   0  0  0  0  0  0  0  0  0  0  0  0
    5.0013   -8.6625    0.0000 C   0  0  0  0  0  0  0  0  0  0  0  0
    4.2868   -9.9000    0.0000 O   0  0  0  0  0  0  0  0  0  0  0  0
    4.2868    0.0000    0.0000 C   0  0  0  0  0  0  0  0  0  0  0  0
    5.0013   -0.4125    0.0000 O   0  0  0  0  0  0  0  0  0  0  0  0
    4.2868    0.8250    0.0000 N   0  0  0  0  0  0  0  0  0  0  0  0
    5.0013    1.2375    0.0000 C   0  0  0  0  0  0  0  0  0  0  0  0
    5.0013    2.0625    0.0000 C   0  0  0  0  0  0  0  0  0  0  0  0
    5.7158    2.4750    0.0000 C   0  0  0  0  0  0  0  0  0  0  0  0
    6.4302    2.0625    0.0000 C   0  0  0  0  0  0  0  0  0  0  0  0
    6.4302    1.2375    0.0000 C   0  0  0  0  0  0  0  0  0  0  0  0
    5.7158    0.8250    0.0000 C   0  0  0  0  0  0  0  0  0  0  0  0
    5.7158    0.0000    0.0000 C   0  0  0  0  0  0  0  0  0  0  0  0
  1  2  1  0  0  0  0
  2  3  2  0  0  0  0
  2  4  1  0  0  0  0
  5  4  1  4  0  0  0
  5  6  2  0  0  0  0
  6  7  1  0  0  0  0
  7  8  2  0  0  0  0
  8  9  1  0  0  0  0
  9 10  2  0  0  0  0
 10 11  1  0  0  0  0
 11 12  2  0  0  0  0
  7 12  1  0  0  0  0
 12 13  1  0  0  0  0
 10 14  1  0  0  0  0
 14 15  1  0  0  0  0
 15 16  2  0  0  0  0
 16 17  1  0  0  0  0
 16 18  1  0  0  0  0
 18 19  2  0  0  0  0
 19 20  1  0  0  0  0
 14 20  2  0  0  0  0
 21 18  1  4  0  0  0
 21 22  2  0  0  0  0
 22 23  1  0  0  0  0
 23 24  1  0  0  0  0
 24 25  2  0  0  0  0
 24 26  1  0  0  0  0
 26 27  1  0  0  0  0
 27 28  2  0  0  0  0
 28 29  1  0  0  0  0
 29 30  2  0  0  0  0
 30 31  1  0  0  0  0
 31 32  2  0  0  0  0
 27 32  1  0  0  0  0
 32 33  1  0  0  0  0
 23 34  1  0  0  0  0
 34 35  1  0  0  0  0
 34 36  2  0  0  0  0
  4 37  1  0  0  0  0
 37 38  2  0  0  0  0
 37 39  1  0  0  0  0
 39 40  1  0  0  0  0
 40 41  2  0  0  0  0
 41 42  1  0  0  0  0
 42 43  2  0  0  0  0
 43 44  1  0  0  0  0
 44 45  2  0  0  0  0
 40 45  1  0  0  0  0
 45 46  1  0  0  0  0
M  END
> <ChemID>
201365

> <CAS>
NOCAS_859909

> <Original_SMILES>
CC(=O)C(/N=N/c1ccc(cc1Cl)-c1cc(Cl)c(cc1)/N=N/C(C(=O)Nc1ccccc1C)C(C)=O)C(=O)Nc1ccccc1C

> <preferred_name>
Butanamide, 2,2'-[(3,3'-dichloro[1,1'-biphenyl]-4,4'-diyl)bis(azo)]bis[N-(2-methylphenyl)-3-oxo-

> <dsstox_substance_id>
DTXSID50859909

> <dsstox_compound_id>
DTXCID70809906

> <qc_level>


> <Canonical_QSARr>
CC(=O)C(N=NC1=CC=C(C=C1Cl)C1C=C(Cl)C(=CC=1)N=NC(C(=O)NC1=CC=CC=C1C)C(C)=O)C(=O)NC1=CC=CC=C1C

> <InChI_Code_QSARr>
InChI=1S/C34H30Cl2N6O4/c1-19-9-5-7-11-27(19)37-33(45)31(21(3)43)41-39-29-15-13-23(17-25(29)35)24-14-16-30(26(36)18-24)40-42-32(22(4)44)34(46)38-28-12-8-6-10-20(28)2/h5-18,31-32H,1-4H3,(H,37,45)(H,38,46)

> <InChI Key_QSARr>
LQZFGPJGXVFSTR-UHFFFAOYSA-N

> <Salt_Solvent>


> <Salt_Solvent_ID>
0

> <MPID>
101248

> <Tr_1_Tst_0>
1

> <Ready_Biodeg>
0.0

$$$$
Row1214
  Mrv171c012251911052D          

 18 18  0  0  0  0            999 V2000
   -1.5296   -1.9160    0.0000 C   0  0  0  0  0  0  0  0  0  0  0  0
   -0.8151   -1.5035    0.0000 O   0  0  0  0  0  0  0  0  0  0  0  0
   -0.8151   -0.6785    0.0000 C   0  0  0  0  0  0  0  0  0  0  0  0
   -0.1007   -0.2660    0.0000 C   0  0  0  0  0  0  0  0  0  0  0  0
   -0.1007    0.5590    0.0000 C   0  0  0  0  0  0  0  0  0  0  0  0
    0.6138    0.9715    0.0000 N   0  0  0  0  0  0  0  0  0  0  0  0
    1.3283    0.5590    0.0000 C   0  0  0  0  0  0  0  0  0  0  0  0
    1.3283   -0.2660    0.0000 O   0  0  0  0  0  0  0  0  0  0  0  0
    2.0428    0.9715    0.0000 C   0  0  0  0  0  0  0  0  0  0  0  0
    2.7572    0.5590    0.0000 C   0  0  0  0  0  0  0  0  0  0  0  0
    3.4717    0.9715    0.0000 C   0  0  0  0  0  0  0  0  0  0  0  0
    2.7572   -0.2660    0.0000 O   0  0  0  0  0  0  0  0  0  0  0  0
   -0.8151    0.9715    0.0000 C   0  0  0  0  0  0  0  0  0  0  0  0
   -0.8151    1.7965    0.0000 O   0  0  0  0  0  0  0  0  0  0  0  0
   -1.5296    2.2090    0.0000 C   0  0  0  0  0  0  0  0  0  0  0  0
   -1.5296    0.5590    0.0000 C   0  0  0  0  0  0  0  0  0  0  0  0
   -1.5296   -0.2660    0.0000 C   0  0  0  0  0  0  0  0  0  0  0  0
   -2.2441   -0.6785    0.0000 Cl  0  0  0  0  0  0  0  0  0  0  0  0
  1  2  1  0  0  0  0
  2  3  1  0  0  0  0
  4  3  2  0  0  0  0
  5  4  1  0  0  0  0
  5  6  1  0  0  0  0
  6  7  1  0  0  0  0
  7  8  2  0  0  0  0
  7  9  1  0  0  0  0
  9 10  1  0  0  0  0
 10 11  1  0  0  0  0
 10 12  2  0  0  0  0
 13  5  2  0  0  0  0
 13 14  1  0  0  0  0
 14 15  1  0  0  0  0
 16 13  1  0  0  0  0
 17 16  2  0  0  0  0
  3 17  1  0  0  0  0
 17 18  1  0  0  0  0
M  END
> <ChemID>
201369

> <CAS>
4433-79-8

> <Original_SMILES>
CC(=O)CC(=O)Nc1cc(OC)c(Cl)cc1OC

> <preferred_name>
N-(4-Chloro-2,5-dimethoxyphenyl)-3-oxobutanamide

> <dsstox_substance_id>
DTXSID5029265

> <dsstox_compound_id>
DTXCID109265

> <qc_level>


> <Canonical_QSARr>
CC(=O)CC(=O)NC1C=C(OC)C(Cl)=CC=1OC

> <InChI_Code_QSARr>
InChI=1S/C12H14ClNO4/c1-7(15)4-12(16)14-9-6-10(17-2)8(13)5-11(9)18-3/h5-6H,4H2,1-3H3,(H,14,16)

> <InChI Key_QSARr>
MOUVJGIRLPZEES-UHFFFAOYSA-N

> <Salt_Solvent>


> <Salt_Solvent_ID>
0

> <MPID>
101249

> <Tr_1_Tst_0>
1

> <Ready_Biodeg>
0.0

$$$$
Row1215
  Mrv171c012251911052D          

 15 15  0  0  0  0            999 V2000
   -1.7147   -1.1550    0.0000 C   0  0  0  0  0  0  0  0  0  0  0  0
   -1.0003   -0.7425    0.0000 C   0  0  0  0  0  0  0  0  0  0  0  0
   -1.0003    0.0825    0.0000 O   0  0  0  0  0  0  0  0  0  0  0  0
   -0.2858   -1.1550    0.0000 C   0  0  0  0  0  0  0  0  0  0  0  0
    0.4287   -0.7425    0.0000 C   0  0  0  0  0  0  0  0  0  0  0  0
    0.4287    0.0825    0.0000 O   0  0  0  0  0  0  0  0  0  0  0  0
    1.1432   -1.1550    0.0000 N   0  0  0  0  0  0  0  0  0  0  0  0
    1.8576   -0.7425    0.0000 C   0  0  0  0  0  0  0  0  0  0  0  0
    2.5721   -1.1550    0.0000 C   0  0  0  0  0  0  0  0  0  0  0  0
    3.2866   -0.7425    0.0000 C   0  0  0  0  0  0  0  0  0  0  0  0
    3.2866    0.0825    0.0000 C   0  0  0  0  0  0  0  0  0  0  0  0
    4.0010    0.4950    0.0000 C   0  0  0  0  0  0  0  0  0  0  0  0
    2.5721    0.4950    0.0000 C   0  0  0  0  0  0  0  0  0  0  0  0
    1.8576    0.0825    0.0000 C   0  0  0  0  0  0  0  0  0  0  0  0
    1.1432    0.4950    0.0000 C   0  0  0  0  0  0  0  0  0  0  0  0
  1  2  1  0  0  0  0
  2  3  2  0  0  0  0
  2  4  1  0  0  0  0
  4  5  1  0  0  0  0
  5  6  2  0  0  0  0
  5  7  1  0  0  0  0
  7  8  1  0  0  0  0
  9  8  2  0  0  0  0
 10  9  1  0  0  0  0
 11 10  2  0  0  0  0
 11 12  1  0  0  0  0
 13 11  1  0  0  0  0
 14 13  2  0  0  0  0
  8 14  1  0  0  0  0
 14 15  1  0  0  0  0
M  END
> <ChemID>
201371

> <CAS>
97-36-9

> <Original_SMILES>
CC(=O)CC(=O)Nc1ccc(C)cc1C

> <preferred_name>
N-(2,4-Dimethylphenyl)-3-oxobutanamide

> <dsstox_substance_id>
DTXSID4040719

> <dsstox_compound_id>
DTXCID2020719

> <qc_level>


> <Canonical_QSARr>
CC(=O)CC(=O)NC1=CC=C(C)C=C1C

> <InChI_Code_QSARr>
InChI=1S/C12H15NO2/c1-8-4-5-11(9(2)6-8)13-12(15)7-10(3)14/h4-6H,7H2,1-3H3,(H,13,15)

> <InChI Key_QSARr>
HGVIAKXYAZRSEG-UHFFFAOYSA-N

> <Salt_Solvent>


> <Salt_Solvent_ID>
0

> <MPID>
101250

> <Tr_1_Tst_0>
1

> <Ready_Biodeg>
0.0

$$$$
Row1216
  Mrv171c012251911052D          

 28 29  0  0  0  0            999 V2000
   -5.7200   -1.7873    0.0000 C   0  0  0  0  0  0  0  0  0  0  0  0
   -5.0055   -1.3748    0.0000 C   0  0  0  0  0  0  0  0  0  0  0  0
   -5.0055   -0.5498    0.0000 O   0  0  0  0  0  0  0  0  0  0  0  0
   -4.2910   -1.7873    0.0000 C   0  0  0  0  0  0  0  0  0  0  0  0
   -3.5766   -1.3748    0.0000 C   0  0  0  0  0  0  0  0  0  0  0  0
   -3.5766   -0.5498    0.0000 O   0  0  0  0  0  0  0  0  0  0  0  0
   -2.8621   -1.7873    0.0000 N   0  0  0  0  0  0  0  0  0  0  0  0
   -2.1476   -1.3748    0.0000 C   0  0  0  0  0  0  0  0  0  0  0  0
   -1.4332   -1.7873    0.0000 C   0  0  0  0  0  0  0  0  0  0  0  0
   -0.7187   -1.3748    0.0000 C   0  0  0  0  0  0  0  0  0  0  0  0
   -0.7187   -0.5498    0.0000 C   0  0  0  0  0  0  0  0  0  0  0  0
   -0.0042   -0.1373    0.0000 C   0  0  0  0  0  0  0  0  0  0  0  0
    0.7103   -0.5498    0.0000 C   0  0  0  0  0  0  0  0  0  0  0  0
    1.4247   -0.1373    0.0000 C   0  0  0  0  0  0  0  0  0  0  0  0
    1.4247    0.6877    0.0000 C   0  0  0  0  0  0  0  0  0  0  0  0
    2.1392    1.1002    0.0000 N   0  0  0  0  0  0  0  0  0  0  0  0
    2.8537    0.6877    0.0000 C   0  0  0  0  0  0  0  0  0  0  0  0
    2.8537   -0.1373    0.0000 O   0  0  0  0  0  0  0  0  0  0  0  0
    3.5681    1.1002    0.0000 C   0  0  0  0  0  0  0  0  0  0  0  0
    4.2826    0.6877    0.0000 C   0  0  0  0  0  0  0  0  0  0  0  0
    4.9971    1.1002    0.0000 C   0  0  0  0  0  0  0  0  0  0  0  0
    4.2826   -0.1373    0.0000 O   0  0  0  0  0  0  0  0  0  0  0  0
    0.7103    1.1002    0.0000 C   0  0  0  0  0  0  0  0  0  0  0  0
    0.7103    1.9252    0.0000 C   0  0  0  0  0  0  0  0  0  0  0  0
   -0.0042    0.6877    0.0000 C   0  0  0  0  0  0  0  0  0  0  0  0
   -1.4332   -0.1373    0.0000 C   0  0  0  0  0  0  0  0  0  0  0  0
   -2.1476   -0.5498    0.0000 C   0  0  0  0  0  0  0  0  0  0  0  0
   -2.8621   -0.1373    0.0000 C   0  0  0  0  0  0  0  0  0  0  0  0
  1  2  1  0  0  0  0
  2  3  2  0  0  0  0
  2  4  1  0  0  0  0
  4  5  1  0  0  0  0
  5  6  2  0  0  0  0
  5  7  1  0  0  0  0
  7  8  1  0  0  0  0
  9  8  2  0  0  0  0
 10  9  1  0  0  0  0
 11 10  2  0  0  0  0
 11 12  1  0  0  0  0
 13 12  2  0  0  0  0
 14 13  1  0  0  0  0
 15 14  2  0  0  0  0
 15 16  1  0  0  0  0
 16 17  1  0  0  0  0
 17 18  2  0  0  0  0
 17 19  1  0  0  0  0
 19 20  1  0  0  0  0
 20 21  1  0  0  0  0
 20 22  2  0  0  0  0
 23 15  1  0  0  0  0
 23 24  1  0  0  0  0
 25 23  2  0  0  0  0
 12 25  1  0  0  0  0
 26 11  1  0  0  0  0
 27 26  2  0  0  0  0
  8 27  1  0  0  0  0
 27 28  1  0  0  0  0
M  END
> <ChemID>
201372

> <CAS>
91-96-3

> <Original_SMILES>
CC(=O)CC(=O)Nc1ccc(cc1C)-c1cc(C)c(cc1)NC(=O)CC(C)=O

> <preferred_name>
Butanamide, N,N'-(3,3'-dimethyl[1,1'-biphenyl]-4,4'-diyl)bis[3-oxo-

> <dsstox_substance_id>
DTXSID5059034

> <dsstox_compound_id>
DTXCID9048726

> <qc_level>


> <Canonical_QSARr>
CC(=O)CC(=O)NC1=CC=C(C=C1C)C1C=C(C)C(=CC=1)NC(=O)CC(C)=O

> <InChI_Code_QSARr>
InChI=1S/C22H24N2O4/c1-13-9-17(5-7-19(13)23-21(27)11-15(3)25)18-6-8-20(14(2)10-18)24-22(28)12-16(4)26/h5-10H,11-12H2,1-4H3,(H,23,27)(H,24,28)

> <InChI Key_QSARr>
CRRLDLPBQWRVGN-UHFFFAOYSA-N

> <Salt_Solvent>


> <Salt_Solvent_ID>
0

> <MPID>
101251

> <Tr_1_Tst_0>
0

> <Ready_Biodeg>
0.0

$$$$
Row1217
  Mrv171c012251911052D          

 13 13  0  0  0  0            999 V2000
   -4.0807   -0.3049    0.0000 C   0  0  0  0  0  0  0  0  0  0  0  0
   -3.3662    0.1076    0.0000 C   0  0  0  0  0  0  0  0  0  0  0  0
   -3.3662    0.9326    0.0000 O   0  0  0  0  0  0  0  0  0  0  0  0
   -2.6517   -0.3049    0.0000 C   0  0  0  0  0  0  0  0  0  0  0  0
   -1.9372    0.1076    0.0000 C   0  0  0  0  0  0  0  0  0  0  0  0
   -1.9372    0.9326    0.0000 O   0  0  0  0  0  0  0  0  0  0  0  0
   -1.2228   -0.3049    0.0000 N   0  0  0  0  0  0  0  0  0  0  0  0
   -0.5083    0.1076    0.0000 C   0  0  0  0  0  0  0  0  0  0  0  0
    0.2062   -0.3049    0.0000 C   0  0  0  0  0  0  0  0  0  0  0  0
    0.9206    0.1076    0.0000 C   0  0  0  0  0  0  0  0  0  0  0  0
    0.9206    0.9326    0.0000 C   0  0  0  0  0  0  0  0  0  0  0  0
    0.2062    1.3451    0.0000 C   0  0  0  0  0  0  0  0  0  0  0  0
   -0.5083    0.9326    0.0000 C   0  0  0  0  0  0  0  0  0  0  0  0
  1  2  1  0  0  0  0
  2  3  2  0  0  0  0
  2  4  1  0  0  0  0
  4  5  1  0  0  0  0
  5  6  2  0  0  0  0
  5  7  1  0  0  0  0
  7  8  1  0  0  0  0
  9  8  2  0  0  0  0
 10  9  1  0  0  0  0
 11 10  2  0  0  0  0
 12 11  1  0  0  0  0
 13 12  2  0  0  0  0
  8 13  1  0  0  0  0
M  END
> <ChemID>
201373

> <CAS>
102-01-2

> <Original_SMILES>
CC(=O)CC(=O)Nc1ccccc1

> <preferred_name>
Acetoacetanilide

> <dsstox_substance_id>
DTXSID0024397

> <dsstox_compound_id>
DTXCID504397

> <qc_level>


> <Canonical_QSARr>
CC(=O)CC(=O)NC1C=CC=CC=1

> <InChI_Code_QSARr>
InChI=1S/C10H11NO2/c1-8(12)7-10(13)11-9-5-3-2-4-6-9/h2-6H,7H2,1H3,(H,11,13)

> <InChI Key_QSARr>
DYRDKSSFIWVSNM-UHFFFAOYSA-N

> <Salt_Solvent>


> <Salt_Solvent_ID>
0

> <MPID>
101252

> <Tr_1_Tst_0>
1

> <Ready_Biodeg>
1.0

$$$$
Row1218
  Mrv171c012251911052D          

  8  7  0  0  0  0            999 V2000
   -2.1434    0.1031    0.0000 C   0  0  0  0  0  0  0  0  0  0  0  0
   -1.4289    0.5156    0.0000 O   0  0  0  0  0  0  0  0  0  0  0  0
   -0.7145    0.1031    0.0000 C   0  0  0  0  0  0  0  0  0  0  0  0
   -0.7145   -0.7219    0.0000 O   0  0  0  0  0  0  0  0  0  0  0  0
    0.0000    0.5156    0.0000 C   0  0  0  0  0  0  0  0  0  0  0  0
    0.7145    0.1031    0.0000 C   0  0  0  0  0  0  0  0  0  0  0  0
    1.4290    0.5156    0.0000 C   0  0  0  0  0  0  0  0  0  0  0  0
    0.7145   -0.7219    0.0000 O   0  0  0  0  0  0  0  0  0  0  0  0
  1  2  1  0  0  0  0
  2  3  1  0  0  0  0
  3  4  2  0  0  0  0
  3  5  1  0  0  0  0
  5  6  1  0  0  0  0
  6  7  1  0  0  0  0
  6  8  2  0  0  0  0
M  END
> <ChemID>
201375

> <CAS>
105-45-3

> <Original_SMILES>
CC(=O)CC(=O)OC

> <preferred_name>
Methyl acetoacetate

> <dsstox_substance_id>
DTXSID9026716

> <dsstox_compound_id>
DTXCID706716

> <qc_level>


> <Canonical_QSARr>
CC(=O)CC(=O)OC

> <InChI_Code_QSARr>
InChI=1S/C5H8O3/c1-4(6)3-5(7)8-2/h3H2,1-2H3

> <InChI Key_QSARr>
WRQNANDWMGAFTP-UHFFFAOYSA-N

> <Salt_Solvent>


> <Salt_Solvent_ID>
0

> <MPID>
101253

> <Tr_1_Tst_0>
1

> <Ready_Biodeg>
1.0

$$$$
Row1219
  Mrv171c012251911052D          

 15 15  0  0  0  0            999 V2000
    1.8722    0.9616    0.0000 C   0  0  0  0  0  0  0  0  0  0  0  0
    1.1577    0.5491    0.0000 C   0  0  0  0  0  0  0  0  0  0  0  0
    1.1577   -0.2759    0.0000 O   0  0  0  0  0  0  0  0  0  0  0  0
    0.4432    0.9616    0.0000 N   0  0  0  0  0  0  0  0  0  0  0  0
   -0.2712    0.5491    0.0000 C   0  0  0  0  0  0  0  0  0  0  0  0
   -0.9857    0.9616    0.0000 C   0  0  0  0  0  0  0  0  0  0  0  0
   -0.9857    1.7866    0.0000 O   0  0  0  0  0  0  0  0  0  0  0  0
   -1.7002    0.5491    0.0000 O   0  0  0  0  0  0  0  0  0  0  0  0
   -1.7002   -0.2759    0.0000 C   0  0  0  0  0  0  0  0  0  0  0  0
   -2.4146   -0.6884    0.0000 C   0  0  0  0  0  0  0  0  0  0  0  0
   -2.4146   -1.5134    0.0000 O   0  0  0  0  0  0  0  0  0  0  0  0
   -0.9857   -0.6884    0.0000 C   0  0  0  0  0  0  0  0  0  0  0  0
   -0.9857   -1.5134    0.0000 O   0  0  0  0  0  0  0  0  0  0  0  0
   -0.2712   -0.2759    0.0000 C   0  0  0  0  0  0  0  0  0  0  0  0
    0.4432   -0.6884    0.0000 O   0  0  0  0  0  0  0  0  0  0  0  0
  1  2  1  0  0  0  0
  2  3  2  0  0  0  0
  2  4  1  0  0  0  0
  4  5  1  0  0  0  0
  6  5  1  0  0  0  0
  6  7  1  0  0  0  0
  8  6  1  0  0  0  0
  9  8  1  0  0  0  0
  9 10  1  0  0  0  0
 10 11  1  0  0  0  0
 12  9  1  0  0  0  0
 12 13  1  0  0  0  0
 14 12  1  0  0  0  0
  5 14  1  0  0  0  0
 14 15  1  0  0  0  0
M  END
> <ChemID>
201381

> <CAS>
NOCAS_859634

> <Original_SMILES>
CC(=O)NC1C(O)C(O)C(CO)OC1O

> <preferred_name>
2-Acetamido-2-deoxy-D-glucopyranose

> <dsstox_substance_id>
DTXSID80859634

> <dsstox_compound_id>
DTXCID80809795

> <qc_level>


> <Canonical_QSARr>
CC(=O)NC1C(O)C(O)C(CO)OC1O

> <InChI_Code_QSARr>
InChI=1S/C8H15NO6/c1-3(11)9-5-7(13)6(12)4(2-10)15-8(5)14/h4-8,10,12-14H,2H2,1H3,(H,9,11)

> <InChI Key_QSARr>
OVRNDRQMDRJTHS-UHFFFAOYSA-N

> <Salt_Solvent>


> <Salt_Solvent_ID>
0

> <MPID>
101254

> <Tr_1_Tst_0>
1

> <Ready_Biodeg>
1.0

$$$$
Row1220
  Mrv171c012251911052D          

 13 13  0  0  0  0            999 V2000
   -0.2300   -2.5130    0.0000 C   0  0  0  0  0  0  0  0  0  0  0  0
    0.4845   -2.1005    0.0000 O   0  0  0  0  0  0  0  0  0  0  0  0
    0.4845   -1.2755    0.0000 C   0  0  0  0  0  0  0  0  0  0  0  0
    1.1989   -0.8630    0.0000 C   0  0  0  0  0  0  0  0  0  0  0  0
    1.1989   -0.0380    0.0000 C   0  0  0  0  0  0  0  0  0  0  0  0
    0.4845    0.3745    0.0000 C   0  0  0  0  0  0  0  0  0  0  0  0
    0.4845    1.1995    0.0000 N   0  0  0  0  0  0  0  0  0  0  0  0
    1.1989    1.6120    0.0000 C   0  0  0  0  0  0  0  0  0  0  0  0
    1.1989    2.4370    0.0000 C   0  0  0  0  0  0  0  0  0  0  0  0
    1.9134    1.1995    0.0000 O   0  0  0  0  0  0  0  0  0  0  0  0
   -0.2300   -0.0380    0.0000 C   0  0  0  0  0  0  0  0  0  0  0  0
   -0.2300   -0.8630    0.0000 C   0  0  0  0  0  0  0  0  0  0  0  0
   -0.9445   -1.2755    0.0000 N   0  0  0  0  0  0  0  0  0  0  0  0
  1  2  1  0  0  0  0
  2  3  1  0  0  0  0
  4  3  2  0  0  0  0
  5  4  1  0  0  0  0
  6  5  2  0  0  0  0
  6  7  1  0  0  0  0
  7  8  1  0  0  0  0
  8  9  1  0  0  0  0
  8 10  2  0  0  0  0
 11  6  1  0  0  0  0
 12 11  2  0  0  0  0
  3 12  1  0  0  0  0
 12 13  1  0  0  0  0
M  END
> <ChemID>
201383

> <CAS>
6375-47-9

> <Original_SMILES>
CC(=O)Nc1cc(N)c(cc1)OC

> <preferred_name>
N-(3-Amino-4-methoxyphenyl)acetamide

> <dsstox_substance_id>
DTXSID2027620

> <dsstox_compound_id>
DTXCID507620

> <qc_level>


> <Canonical_QSARr>
CC(=O)NC1C=C(N)C(=CC=1)OC

> <InChI_Code_QSARr>
InChI=1S/C9H12N2O2/c1-6(12)11-7-3-4-9(13-2)8(10)5-7/h3-5H,10H2,1-2H3,(H,11,12)

> <InChI Key_QSARr>
SJWQCBCAGCEWCV-UHFFFAOYSA-N

> <Salt_Solvent>


> <Salt_Solvent_ID>
0

> <MPID>
101255

> <Tr_1_Tst_0>
1

> <Ready_Biodeg>
0.0

$$$$
Row1221
  Mrv171c012251911052D          

 40 43  0  0  0  0            999 V2000
    5.1170   -6.6090    0.0000 C   0  0  0  0  0  0  0  0  0  0  0  0
    5.8315   -7.0215    0.0000 C   0  0  0  0  0  0  0  0  0  0  0  0
    6.5459   -6.6090    0.0000 O   0  0  0  0  0  0  0  0  0  0  0  0
    5.8315   -7.8465    0.0000 O   0  0  0  0  0  0  0  0  0  0  0  0
    6.5459   -8.2590    0.0000 C   0  0  0  0  0  0  0  0  0  0  0  0
    6.5459   -9.0840    0.0000 C   0  0  0  0  0  0  0  0  0  0  0  0
    7.2604   -9.4965    0.0000 N   0  0  0  0  0  0  0  0  0  0  0  0
    7.9749   -9.0840    0.0000 C   0  0  0  0  0  0  0  0  0  0  0  0
    7.9749   -8.2590    0.0000 C   0  0  0  0  0  0  0  0  0  0  0  0
    8.6894   -7.8465    0.0000 O   0  0  0  0  0  0  0  0  0  0  0  0
    8.6894   -7.0215    0.0000 C   0  0  0  0  0  0  0  0  0  0  0  0
    7.9749   -6.6090    0.0000 C   0  0  0  0  0  0  0  0  0  0  0  0
    9.4038   -6.6090    0.0000 O   0  0  0  0  0  0  0  0  0  0  0  0
    7.2604  -10.3215    0.0000 C   0  0  0  0  0  0  0  0  0  0  0  0
    7.9749  -10.7340    0.0000 C   0  0  0  0  0  0  0  0  0  0  0  0
    7.9749  -11.5590    0.0000 C   0  0  0  0  0  0  0  0  0  0  0  0
    8.6894  -11.9715    0.0000 N   0  0  0  0  0  0  0  0  0  0  0  0
    9.4038  -11.5590    0.0000 C   0  0  0  0  0  0  0  0  0  0  0  0
    9.4038  -10.7340    0.0000 O   0  0  0  0  0  0  0  0  0  0  0  0
   10.1183  -11.9715    0.0000 C   0  0  0  0  0  0  0  0  0  0  0  0
   10.8328  -11.5590    0.0000 C   0  0  0  0  0  0  0  0  0  0  0  0
   11.5472  -11.9715    0.0000 C   0  0  0  0  0  0  0  0  0  0  0  0
   11.5472  -12.7965    0.0000 C   0  0  0  0  0  0  0  0  0  0  0  0
   10.8328  -13.2090    0.0000 C   0  0  0  0  0  0  0  0  0  0  0  0
   10.1183  -12.7965    0.0000 C   0  0  0  0  0  0  0  0  0  0  0  0
    7.2604  -11.9715    0.0000 C   0  0  0  0  0  0  0  0  0  0  0  0
    6.5459  -11.5590    0.0000 C   0  0  0  0  0  0  0  0  0  0  0  0
    6.5459  -10.7340    0.0000 C   0  0  0  0  0  0  0  0  0  0  0  0
    7.2604  -12.7965    0.0000 N   0  0  0  0  0  0  0  0  0  0  0  0
    6.5459  -13.2090    0.0000 N   0  0  0  0  0  0  0  0  0  0  0  0
    6.5459  -14.0340    0.0000 C   0  0  0  0  0  0  0  0  0  0  0  0
    7.2134  -14.5189    0.0000 N   0  0  0  0  0  0  0  0  0  0  0  0
    6.9584  -15.3035    0.0000 C   0  0  0  0  0  0  0  0  0  0  0  0
    7.3709  -16.0180    0.0000 C   0  0  0  0  0  0  0  0  0  0  0  0
    6.9584  -16.7325    0.0000 C   0  0  0  0  0  0  0  0  0  0  0  0
    6.1334  -16.7325    0.0000 C   0  0  0  0  0  0  0  0  0  0  0  0
    5.7209  -17.4469    0.0000 Cl  0  0  0  0  0  0  0  0  0  0  0  0
    5.7209  -16.0180    0.0000 C   0  0  0  0  0  0  0  0  0  0  0  0
    6.1334  -15.3035    0.0000 C   0  0  0  0  0  0  0  0  0  0  0  0
    5.8785  -14.5189    0.0000 S   0  0  0  0  0  0  0  0  0  0  0  0
  1  2  1  0  0  0  0
  2  3  2  0  0  0  0
  2  4  1  0  0  0  0
  4  5  1  0  0  0  0
  5  6  1  0  0  0  0
  6  7  1  0  0  0  0
  7  8  1  0  0  0  0
  8  9  1  0  0  0  0
  9 10  1  0  0  0  0
 10 11  1  0  0  0  0
 11 12  1  0  0  0  0
 11 13  2  0  0  0  0
  7 14  1  0  0  0  0
 14 15  1  0  0  0  0
 15 16  2  0  0  0  0
 16 17  1  0  0  0  0
 17 18  1  0  0  0  0
 18 19  2  0  0  0  0
 18 20  1  0  0  0  0
 20 21  1  0  0  0  0
 21 22  2  0  0  0  0
 22 23  1  0  0  0  0
 23 24  2  0  0  0  0
 24 25  1  0  0  0  0
 20 25  2  0  0  0  0
 16 26  1  0  0  0  0
 26 27  2  0  0  0  0
 27 28  1  0  0  0  0
 14 28  2  0  0  0  0
 29 26  1  4  0  0  0
 29 30  2  0  0  0  0
 30 31  1  0  0  0  0
 31 32  2  0  0  0  0
 32 33  1  0  0  0  0
 33 34  2  0  0  0  0
 34 35  1  0  0  0  0
 35 36  2  0  0  0  0
 36 37  1  0  0  0  0
 36 38  1  0  0  0  0
 38 39  2  0  0  0  0
 33 39  1  0  0  0  0
 39 40  1  0  0  0  0
 31 40  1  0  0  0  0
M  END
> <ChemID>
201389

> <CAS>
26630-87-5

> <Original_SMILES>
CC(=O)OCCN(CCOC(C)=O)c1cc(NC(=O)c2ccccc2)c(cc1)/N=N/c1[n]c2ccc(Cl)cc2[s]1

> <preferred_name>


> <dsstox_substance_id>


> <dsstox_compound_id>


> <qc_level>


> <Canonical_QSARr>
CC(=O)OCCN(CCOC(C)=O)C1C=C(NC(=O)C2C=CC=CC=2)C(=CC=1)N=NC1=NC2=CC=C(Cl)C=C2S1

> <InChI_Code_QSARr>
InChI=1S/C28H26ClN5O5S/c1-18(35)38-14-12-34(13-15-39-19(2)36)22-9-11-23(25(17-22)30-27(37)20-6-4-3-5-7-20)32-33-28-31-24-10-8-21(29)16-26(24)40-28/h3-11,16-17H,12-15H2,1-2H3,(H,30,37)

> <InChI Key_QSARr>
UGFKGKQLDQFUEG-UHFFFAOYSA-N

> <Salt_Solvent>


> <Salt_Solvent_ID>
0

> <MPID>
101256

> <Tr_1_Tst_0>
1

> <Ready_Biodeg>
0.0

$$$$
Row1222
  Mrv171c012251911052D          

  9  8  0  0  0  0            999 V2000
   -2.0640   -1.3750    0.0000 C   0  0  0  0  0  0  0  0  0  0  0  0
   -1.3495   -0.9625    0.0000 C   0  0  0  0  0  0  0  0  0  0  0  0
   -0.6351   -1.3750    0.0000 O   0  0  0  0  0  0  0  0  0  0  0  0
   -1.3495   -0.1375    0.0000 O   0  0  0  0  0  0  0  0  0  0  0  0
   -0.6351    0.2750    0.0000 O   0  0  0  0  0  0  0  0  0  0  0  0
   -0.6351    1.1000    0.0000 C   0  0  0  0  0  0  0  0  0  0  0  0
   -0.6351    1.9250    0.0000 C   0  0  0  0  0  0  0  0  0  0  0  0
    0.1899    1.1000    0.0000 C   0  0  0  0  0  0  0  0  0  0  0  0
   -1.4601    1.1000    0.0000 C   0  0  0  0  0  0  0  0  0  0  0  0
  1  2  1  0  0  0  0
  2  3  2  0  0  0  0
  2  4  1  0  0  0  0
  4  5  1  0  0  0  0
  5  6  1  0  0  0  0
  6  7  1  0  0  0  0
  6  8  1  0  0  0  0
  6  9  1  0  0  0  0
M  END
> <ChemID>
201391

> <CAS>
107-71-1

> <Original_SMILES>
CC(=O)OOC(C)(C)C

> <preferred_name>
tert-Butyl peroxyacetate

> <dsstox_substance_id>
DTXSID9029142

> <dsstox_compound_id>
DTXCID109142

> <qc_level>


> <Canonical_QSARr>
CC(=O)OOC(C)(C)C

> <InChI_Code_QSARr>
InChI=1S/C6H12O3/c1-5(7)8-9-6(2,3)4/h1-4H3

> <InChI Key_QSARr>
SWAXTRYEYUTSAP-UHFFFAOYSA-N

> <Salt_Solvent>


> <Salt_Solvent_ID>
0

> <MPID>
101257

> <Tr_1_Tst_0>
1

> <Ready_Biodeg>
0.0

$$$$
Row1223
  Mrv171c012251911052D          

 16 16  0  0  0  0            999 V2000
   -0.4281    1.1564    0.0000 C   0  0  0  0  0  0  0  0  0  0  0  0
   -0.0156    0.4420    0.0000 C   0  0  0  0  0  0  0  0  0  0  0  0
    0.3969   -0.2725    0.0000 Br  0  0  0  0  0  0  0  0  0  0  0  0
    0.6989    0.8545    0.0000 C   0  0  0  0  0  0  0  0  0  0  0  0
    1.4134    0.4420    0.0000 Br  0  0  0  0  0  0  0  0  0  0  0  0
   -0.7300    0.0295    0.0000 C   0  0  0  0  0  0  0  0  0  0  0  0
   -1.4445    0.4420    0.0000 O   0  0  0  0  0  0  0  0  0  0  0  0
   -2.1590    0.0295    0.0000 C   0  0  0  0  0  0  0  0  0  0  0  0
   -2.8734    0.4420    0.0000 C   0  0  0  0  0  0  0  0  0  0  0  0
   -2.8734    1.2670    0.0000 Br  0  0  0  0  0  0  0  0  0  0  0  0
   -3.5879    0.0295    0.0000 C   0  0  0  0  0  0  0  0  0  0  0  0
   -3.5879   -0.7955    0.0000 C   0  0  0  0  0  0  0  0  0  0  0  0
   -4.3024   -1.2080    0.0000 Br  0  0  0  0  0  0  0  0  0  0  0  0
   -2.8734   -1.2080    0.0000 C   0  0  0  0  0  0  0  0  0  0  0  0
   -2.1590   -0.7955    0.0000 C   0  0  0  0  0  0  0  0  0  0  0  0
   -1.4445   -1.2080    0.0000 Br  0  0  0  0  0  0  0  0  0  0  0  0
  1  2  1  0  0  0  0
  2  3  1  0  0  0  0
  2  4  1  0  0  0  0
  4  5  1  0  0  0  0
  2  6  1  0  0  0  0
  6  7  1  0  0  0  0
  7  8  1  0  0  0  0
  9  8  2  0  0  0  0
  9 10  1  0  0  0  0
 11  9  1  0  0  0  0
 12 11  2  0  0  0  0
 12 13  1  0  0  0  0
 14 12  1  0  0  0  0
 15 14  2  0  0  0  0
  8 15  1  0  0  0  0
 15 16  1  0  0  0  0
M  END
> <ChemID>
201395

> <CAS>
36065-30-2

> <Original_SMILES>
CC(Br)(COc1c(Br)cc(Br)cc1Br)CBr

> <preferred_name>


> <dsstox_substance_id>


> <dsstox_compound_id>


> <qc_level>


> <Canonical_QSARr>
CC(Br)(COC1C(Br)=CC(Br)=CC=1Br)CBr

> <InChI_Code_QSARr>
InChI=1S/C10H9Br5O/c1-10(15,4-11)5-16-9-7(13)2-6(12)3-8(9)14/h2-3H,4-5H2,1H3

> <InChI Key_QSARr>
WNMLTOIDDCEBNY-UHFFFAOYSA-N

> <Salt_Solvent>


> <Salt_Solvent_ID>
0

> <MPID>
101258

> <Tr_1_Tst_0>
1

> <Ready_Biodeg>
0.0

$$$$
Row1224
  Mrv171c012251911052D          

 15 15  0  0  0  0            999 V2000
   -1.5208   -2.1175    0.0000 C   0  0  0  0  0  0  0  0  0  0  0  0
   -0.8063   -1.7050    0.0000 C   0  0  0  0  0  0  0  0  0  0  0  0
   -0.3938   -2.4194    0.0000 C   0  0  0  0  0  0  0  0  0  0  0  0
   -1.2188   -0.9905    0.0000 C   0  0  0  0  0  0  0  0  0  0  0  0
   -0.0918   -1.2925    0.0000 C   0  0  0  0  0  0  0  0  0  0  0  0
   -0.0918   -0.4675    0.0000 C   0  0  0  0  0  0  0  0  0  0  0  0
    0.7332   -0.4675    0.0000 C   0  0  0  0  0  0  0  0  0  0  0  0
   -0.9168   -0.4675    0.0000 C   0  0  0  0  0  0  0  0  0  0  0  0
   -0.0918    0.3575    0.0000 C   0  0  0  0  0  0  0  0  0  0  0  0
    0.6226    0.7700    0.0000 C   0  0  0  0  0  0  0  0  0  0  0  0
    0.6226    1.5950    0.0000 C   0  0  0  0  0  0  0  0  0  0  0  0
   -0.0918    2.0075    0.0000 C   0  0  0  0  0  0  0  0  0  0  0  0
   -0.0918    2.8325    0.0000 O   0  0  0  0  0  0  0  0  0  0  0  0
   -0.8063    1.5950    0.0000 C   0  0  0  0  0  0  0  0  0  0  0  0
   -0.8063    0.7700    0.0000 C   0  0  0  0  0  0  0  0  0  0  0  0
  1  2  1  0  0  0  0
  2  3  1  0  0  0  0
  2  4  1  0  0  0  0
  2  5  1  0  0  0  0
  5  6  1  0  0  0  0
  6  7  1  0  0  0  0
  6  8  1  0  0  0  0
  6  9  1  0  0  0  0
 10  9  2  0  0  0  0
 11 10  1  0  0  0  0
 12 11  2  0  0  0  0
 12 13  1  0  0  0  0
 14 12  1  0  0  0  0
 15 14  2  0  0  0  0
  9 15  1  0  0  0  0
M  END
> <ChemID>
201397

> <CAS>
140-66-9

> <Original_SMILES>
CC(C)(C)CC(C)(C)c1ccc(O)cc1

> <preferred_name>
4-(1,1,3,3-Tetramethylbutyl)phenol

> <dsstox_substance_id>
DTXSID9022360

> <dsstox_compound_id>
DTXCID602360

> <qc_level>


> <Canonical_QSARr>
CC(C)(C)CC(C)(C)C1C=CC(O)=CC=1

> <InChI_Code_QSARr>
InChI=1S/C14H22O/c1-13(2,3)10-14(4,5)11-6-8-12(15)9-7-11/h6-9,15H,10H2,1-5H3

> <InChI Key_QSARr>
ISAVYTVYFVQUDY-UHFFFAOYSA-N

> <Salt_Solvent>


> <Salt_Solvent_ID>
0

> <MPID>
101259

> <Tr_1_Tst_0>
0

> <Ready_Biodeg>
0.0

$$$$
Row1225
  Mrv171c012251911052D          

  5  4  0  0  0  0            999 V2000
    0.0000   -0.8250    0.0000 C   0  0  0  0  0  0  0  0  0  0  0  0
    0.0000    0.0000    0.0000 C   0  0  0  0  0  0  0  0  0  0  0  0
    0.0000    0.8250    0.0000 C   0  0  0  0  0  0  0  0  0  0  0  0
    0.8250   -0.0000    0.0000 C   0  0  0  0  0  0  0  0  0  0  0  0
   -0.8250    0.0000    0.0000 N   0  0  0  0  0  0  0  0  0  0  0  0
  1  2  1  0  0  0  0
  2  3  1  0  0  0  0
  2  4  1  0  0  0  0
  2  5  1  0  0  0  0
M  END
> <ChemID>
201398

> <CAS>
75-64-9

> <Original_SMILES>
CC(C)(C)N

> <preferred_name>
tert-Butylamine

> <dsstox_substance_id>
DTXSID5024681

> <dsstox_compound_id>
DTXCID404681

> <qc_level>


> <Canonical_QSARr>
CC(C)(C)N

> <InChI_Code_QSARr>
InChI=1S/C4H11N/c1-4(2,3)5/h5H2,1-3H3

> <InChI Key_QSARr>
YBRBMKDOPFTVDT-UHFFFAOYSA-N

> <Salt_Solvent>


> <Salt_Solvent_ID>
0

> <MPID>
101260

> <Tr_1_Tst_0>
1

> <Ready_Biodeg>
0.0

$$$$
Row1226
  Mrv171c012251911052D          

  8  7  0  0  0  0            999 V2000
    1.8790   -1.0226    0.0000 C   0  0  0  0  0  0  0  0  0  0  0  0
    1.4665   -0.3082    0.0000 C   0  0  0  0  0  0  0  0  0  0  0  0
    2.1810    0.1043    0.0000 C   0  0  0  0  0  0  0  0  0  0  0  0
    0.7520   -0.7207    0.0000 C   0  0  0  0  0  0  0  0  0  0  0  0
    1.0540    0.4063    0.0000 N   0  0  0  0  0  0  0  0  0  0  0  0
    0.2290    0.4063    0.0000 C   0  0  0  0  0  0  0  0  0  0  0  0
   -0.1835    1.1208    0.0000 C   0  0  0  0  0  0  0  0  0  0  0  0
   -1.0085    1.1208    0.0000 O   0  0  0  0  0  0  0  0  0  0  0  0
  1  2  1  0  0  0  0
  2  3  1  0  0  0  0
  2  4  1  0  0  0  0
  2  5  1  0  0  0  0
  5  6  1  0  0  0  0
  6  7  1  0  0  0  0
  7  8  1  0  0  0  0
M  END
> <ChemID>
201399

> <CAS>
4620-70-6

> <Original_SMILES>
CC(C)(C)NCCO

> <preferred_name>
2-(tert-Butylamino)ethanol

> <dsstox_substance_id>
DTXSID1044431

> <dsstox_compound_id>
DTXCID9024431

> <qc_level>


> <Canonical_QSARr>
CC(C)(C)NCCO

> <InChI_Code_QSARr>
InChI=1S/C6H15NO/c1-6(2,3)7-4-5-8/h7-8H,4-5H2,1-3H3

> <InChI Key_QSARr>
IUXYVKZUDNLISR-UHFFFAOYSA-N

> <Salt_Solvent>


> <Salt_Solvent_ID>
0

> <MPID>
101261

> <Tr_1_Tst_0>
1

> <Ready_Biodeg>
0.0

$$$$
Row1227
  Mrv171c012251911052D          

  8  7  0  0  0  0            999 V2000
    0.3065   -1.3953    0.0000 C   0  0  0  0  0  0  0  0  0  0  0  0
   -0.1060   -0.6808    0.0000 C   0  0  0  0  0  0  0  0  0  0  0  0
    0.6085   -0.2683    0.0000 C   0  0  0  0  0  0  0  0  0  0  0  0
   -0.8205   -1.0933    0.0000 C   0  0  0  0  0  0  0  0  0  0  0  0
   -0.5185    0.0337    0.0000 O   0  0  0  0  0  0  0  0  0  0  0  0
   -1.3435    0.0337    0.0000 C   0  0  0  0  0  0  0  0  0  0  0  0
   -1.7560    0.7481    0.0000 C   0  0  0  0  0  0  0  0  0  0  0  0
   -2.5810    0.7481    0.0000 O   0  0  0  0  0  0  0  0  0  0  0  0
  1  2  1  0  0  0  0
  2  3  1  0  0  0  0
  2  4  1  0  0  0  0
  2  5  1  0  0  0  0
  5  6  1  0  0  0  0
  6  7  1  0  0  0  0
  7  8  1  0  0  0  0
M  END
> <ChemID>
201400

> <CAS>
7580-85-0

> <Original_SMILES>
CC(C)(C)OCCO

> <preferred_name>
Ethanol, 2-(1,1-dimethylethoxy)-

> <dsstox_substance_id>
DTXSID4073384

> <dsstox_compound_id>
DTXCID5047821

> <qc_level>


> <Canonical_QSARr>
CC(C)(C)OCCO

> <InChI_Code_QSARr>
InChI=1S/C6H14O2/c1-6(2,3)8-5-4-7/h7H,4-5H2,1-3H3

> <InChI Key_QSARr>
BDLXTDLGTWNUFM-UHFFFAOYSA-N

> <Salt_Solvent>


> <Salt_Solvent_ID>
0

> <MPID>
101262

> <Tr_1_Tst_0>
1

> <Ready_Biodeg>
0.0

$$$$
Row1228
  Mrv171c012251911052D          

  6  5  0  0  0  0            999 V2000
    0.4125   -0.7145    0.0000 C   0  0  0  0  0  0  0  0  0  0  0  0
    0.0000   -0.0000    0.0000 C   0  0  0  0  0  0  0  0  0  0  0  0
    0.7145    0.4125    0.0000 C   0  0  0  0  0  0  0  0  0  0  0  0
   -0.7145   -0.4125    0.0000 C   0  0  0  0  0  0  0  0  0  0  0  0
   -0.4125    0.7145    0.0000 O   0  0  0  0  0  0  0  0  0  0  0  0
   -1.2375    0.7145    0.0000 O   0  0  0  0  0  0  0  0  0  0  0  0
  1  2  1  0  0  0  0
  2  3  1  0  0  0  0
  2  4  1  0  0  0  0
  2  5  1  0  0  0  0
  5  6  1  0  0  0  0
M  END
> <ChemID>
201401

> <CAS>
75-91-2

> <Original_SMILES>
CC(C)(C)OO

> <preferred_name>
tert-Butyl hydroperoxide

> <dsstox_substance_id>
DTXSID9024693

> <dsstox_compound_id>
DTXCID504693

> <qc_level>


> <Canonical_QSARr>
CC(C)(C)OO

> <InChI_Code_QSARr>
InChI=1S/C4H10O2/c1-4(2,3)6-5/h5H,1-3H3

> <InChI Key_QSARr>
CIHOLLKRGTVIJN-UHFFFAOYSA-N

> <Salt_Solvent>


> <Salt_Solvent_ID>
0

> <MPID>
101263

> <Tr_1_Tst_0>
0

> <Ready_Biodeg>
0.0

$$$$
Row1229
  Mrv171c012251911052D          

 14 14  0  0  0  0            999 V2000
   -0.3062    2.0625    0.0000 C   0  0  0  0  0  0  0  0  0  0  0  0
   -1.0207    1.6500    0.0000 C   0  0  0  0  0  0  0  0  0  0  0  0
   -1.4332    2.3645    0.0000 C   0  0  0  0  0  0  0  0  0  0  0  0
   -0.6082    0.9355    0.0000 C   0  0  0  0  0  0  0  0  0  0  0  0
   -1.7352    1.2375    0.0000 O   0  0  0  0  0  0  0  0  0  0  0  0
   -1.7352    0.4125    0.0000 O   0  0  0  0  0  0  0  0  0  0  0  0
   -2.4496   -0.0000    0.0000 C   0  0  0  0  0  0  0  0  0  0  0  0
   -3.1641    0.4125    0.0000 O   0  0  0  0  0  0  0  0  0  0  0  0
   -2.4496   -0.8250    0.0000 C   0  0  0  0  0  0  0  0  0  0  0  0
   -3.1641   -1.2375    0.0000 C   0  0  0  0  0  0  0  0  0  0  0  0
   -3.1641   -2.0625    0.0000 C   0  0  0  0  0  0  0  0  0  0  0  0
   -2.4496   -2.4750    0.0000 C   0  0  0  0  0  0  0  0  0  0  0  0
   -1.7352   -2.0625    0.0000 C   0  0  0  0  0  0  0  0  0  0  0  0
   -1.7352   -1.2375    0.0000 C   0  0  0  0  0  0  0  0  0  0  0  0
  1  2  1  0  0  0  0
  2  3  1  0  0  0  0
  2  4  1  0  0  0  0
  2  5  1  0  0  0  0
  5  6  1  0  0  0  0
  6  7  1  0  0  0  0
  7  8  2  0  0  0  0
  7  9  1  0  0  0  0
 10  9  2  0  0  0  0
 11 10  1  0  0  0  0
 12 11  2  0  0  0  0
 13 12  1  0  0  0  0
 14 13  2  0  0  0  0
  9 14  1  0  0  0  0
M  END
> <ChemID>
201402

> <CAS>
614-45-9

> <Original_SMILES>
CC(C)(C)OOC(=O)c1ccccc1

> <preferred_name>
tert-Butyl perbenzoate

> <dsstox_substance_id>
DTXSID9024699

> <dsstox_compound_id>
DTXCID904699

> <qc_level>


> <Canonical_QSARr>
CC(C)(C)OOC(=O)C1C=CC=CC=1

> <InChI_Code_QSARr>
InChI=1S/C11H14O3/c1-11(2,3)14-13-10(12)9-7-5-4-6-8-9/h4-8H,1-3H3

> <InChI Key_QSARr>
GJBRNHKUVLOCEB-UHFFFAOYSA-N

> <Salt_Solvent>


> <Salt_Solvent_ID>
0

> <MPID>
101264

> <Tr_1_Tst_0>
1

> <Ready_Biodeg>
0.0

$$$$
Row1230
  Mrv171c012251911052D          

 20 19  0  0  0  0            999 V2000
   -0.4530   -4.9904    0.0000 C   0  0  0  0  0  0  0  0  0  0  0  0
   -0.4530   -4.1654    0.0000 C   0  0  0  0  0  0  0  0  0  0  0  0
    0.3720   -4.1654    0.0000 C   0  0  0  0  0  0  0  0  0  0  0  0
   -1.2780   -4.1654    0.0000 C   0  0  0  0  0  0  0  0  0  0  0  0
   -0.4530   -3.3404    0.0000 O   0  0  0  0  0  0  0  0  0  0  0  0
    0.2615   -2.9279    0.0000 O   0  0  0  0  0  0  0  0  0  0  0  0
    0.2615   -2.1029    0.0000 C   0  0  0  0  0  0  0  0  0  0  0  0
    1.0865   -2.1029    0.0000 C   0  0  0  0  0  0  0  0  0  0  0  0
   -0.5635   -2.1029    0.0000 C   0  0  0  0  0  0  0  0  0  0  0  0
    0.2615   -1.2779    0.0000 C   0  0  0  0  0  0  0  0  0  0  0  0
    0.9760   -0.8654    0.0000 C   0  0  0  0  0  0  0  0  0  0  0  0
    0.9760   -0.0404    0.0000 C   0  0  0  0  0  0  0  0  0  0  0  0
    1.8010   -0.0404    0.0000 C   0  0  0  0  0  0  0  0  0  0  0  0
    0.1510   -0.0404    0.0000 C   0  0  0  0  0  0  0  0  0  0  0  0
    0.9760    0.7846    0.0000 O   0  0  0  0  0  0  0  0  0  0  0  0
    1.6904    1.1971    0.0000 O   0  0  0  0  0  0  0  0  0  0  0  0
    1.6904    2.0221    0.0000 C   0  0  0  0  0  0  0  0  0  0  0  0
    1.6904    2.8471    0.0000 C   0  0  0  0  0  0  0  0  0  0  0  0
    2.5154    2.0221    0.0000 C   0  0  0  0  0  0  0  0  0  0  0  0
    0.8654    2.0221    0.0000 C   0  0  0  0  0  0  0  0  0  0  0  0
  1  2  1  0  0  0  0
  2  3  1  0  0  0  0
  2  4  1  0  0  0  0
  2  5  1  0  0  0  0
  5  6  1  0  0  0  0
  6  7  1  0  0  0  0
  7  8  1  0  0  0  0
  7  9  1  0  0  0  0
  7 10  1  0  0  0  0
 10 11  1  0  0  0  0
 11 12  1  0  0  0  0
 12 13  1  0  0  0  0
 12 14  1  0  0  0  0
 12 15  1  0  0  0  0
 15 16  1  0  0  0  0
 16 17  1  0  0  0  0
 17 18  1  0  0  0  0
 17 19  1  0  0  0  0
 17 20  1  0  0  0  0
M  END
> <ChemID>
201403

> <CAS>
78-63-7

> <Original_SMILES>
CC(C)(C)OOC(C)(C)CCC(C)(C)OOC(C)(C)C

> <preferred_name>
2,5-Dimethyl-2,5-di-(tert-butylperoxy)hexane

> <dsstox_substance_id>
DTXSID9025110

> <dsstox_compound_id>
DTXCID005110

> <qc_level>


> <Canonical_QSARr>
CC(C)(C)OOC(C)(C)CCC(C)(C)OOC(C)(C)C

> <InChI_Code_QSARr>
InChI=1S/C16H34O4/c1-13(2,3)17-19-15(7,8)11-12-16(9,10)20-18-14(4,5)6/h11-12H2,1-10H3

> <InChI Key_QSARr>
DMWVYCCGCQPJEA-UHFFFAOYSA-N

> <Salt_Solvent>


> <Salt_Solvent_ID>
0

> <MPID>
101265

> <Tr_1_Tst_0>
1

> <Ready_Biodeg>
0.0

$$$$
Row1231
  Mrv171c012251911052D          

 24 24  0  0  0  0            999 V2000
    0.7145   -5.3625    0.0000 C   0  0  0  0  0  0  0  0  0  0  0  0
    0.7145   -4.5375    0.0000 C   0  0  0  0  0  0  0  0  0  0  0  0
    1.5395   -4.5375    0.0000 C   0  0  0  0  0  0  0  0  0  0  0  0
   -0.1105   -4.5375    0.0000 C   0  0  0  0  0  0  0  0  0  0  0  0
    0.7145   -3.7125    0.0000 O   0  0  0  0  0  0  0  0  0  0  0  0
    1.4289   -3.3000    0.0000 O   0  0  0  0  0  0  0  0  0  0  0  0
    1.4289   -2.4750    0.0000 C   0  0  0  0  0  0  0  0  0  0  0  0
    2.2539   -2.4750    0.0000 C   0  0  0  0  0  0  0  0  0  0  0  0
    0.6039   -2.4750    0.0000 C   0  0  0  0  0  0  0  0  0  0  0  0
    1.4289   -1.6500    0.0000 C   0  0  0  0  0  0  0  0  0  0  0  0
    2.1434   -1.2375    0.0000 C   0  0  0  0  0  0  0  0  0  0  0  0
    2.1434   -0.4125    0.0000 C   0  0  0  0  0  0  0  0  0  0  0  0
    1.4289    0.0000    0.0000 C   0  0  0  0  0  0  0  0  0  0  0  0
    1.4289    0.8250    0.0000 C   0  0  0  0  0  0  0  0  0  0  0  0
    2.2539    0.8250    0.0000 C   0  0  0  0  0  0  0  0  0  0  0  0
    0.6039    0.8250    0.0000 C   0  0  0  0  0  0  0  0  0  0  0  0
    1.4289    1.6500    0.0000 O   0  0  0  0  0  0  0  0  0  0  0  0
    2.1434    2.0625    0.0000 O   0  0  0  0  0  0  0  0  0  0  0  0
    2.1434    2.8875    0.0000 C   0  0  0  0  0  0  0  0  0  0  0  0
    2.1434    3.7125    0.0000 C   0  0  0  0  0  0  0  0  0  0  0  0
    2.9684    2.8875    0.0000 C   0  0  0  0  0  0  0  0  0  0  0  0
    1.3184    2.8875    0.0000 C   0  0  0  0  0  0  0  0  0  0  0  0
    0.7145   -0.4125    0.0000 C   0  0  0  0  0  0  0  0  0  0  0  0
    0.7145   -1.2375    0.0000 C   0  0  0  0  0  0  0  0  0  0  0  0
  1  2  1  0  0  0  0
  2  3  1  0  0  0  0
  2  4  1  0  0  0  0
  2  5  1  0  0  0  0
  5  6  1  0  0  0  0
  6  7  1  0  0  0  0
  7  8  1  0  0  0  0
  7  9  1  0  0  0  0
  7 10  1  0  0  0  0
 11 10  2  0  0  0  0
 12 11  1  0  0  0  0
 13 12  2  0  0  0  0
 13 14  1  0  0  0  0
 14 15  1  0  0  0  0
 14 16  1  0  0  0  0
 14 17  1  0  0  0  0
 17 18  1  0  0  0  0
 18 19  1  0  0  0  0
 19 20  1  0  0  0  0
 19 21  1  0  0  0  0
 19 22  1  0  0  0  0
 23 13  1  0  0  0  0
 24 23  2  0  0  0  0
 10 24  1  0  0  0  0
M  END
> <ChemID>
201404

> <CAS>
25155-25-3

> <Original_SMILES>
CC(C)(C)OOC(C)(C)c1ccc(cc1)C(C)(C)OOC(C)(C)C

> <preferred_name>
Bis(t-butyl dioxyisopropyl)benzene

> <dsstox_substance_id>
DTXSID7024611

> <dsstox_compound_id>
DTXCID601323291

> <qc_level>


> <Canonical_QSARr>
CC(C)(C)OOC(C)(C)C1C=CC(=CC=1)C(C)(C)OOC(C)(C)C

> <InChI_Code_QSARr>
InChI=1S/C20H34O4/c1-17(2,3)21-23-19(7,8)15-11-13-16(14-12-15)20(9,10)24-22-18(4,5)6/h11-14H,1-10H3

> <InChI Key_QSARr>
GWQOYRSARAWVTC-UHFFFAOYSA-N

> <Salt_Solvent>


> <Salt_Solvent_ID>
0

> <MPID>
101266

> <Tr_1_Tst_0>
1

> <Ready_Biodeg>
0.0

$$$$
Row1232
  Mrv171c012251911052D          

 85 88  0  0  0  0            999 V2000
    0.0000   -6.0440    0.0000 C   0  0  0  0  0  0  0  0  0  0  0  0
   -0.7145   -5.6315    0.0000 C   0  0  0  0  0  0  0  0  0  0  0  0
   -0.3020   -4.9170    0.0000 C   0  0  0  0  0  0  0  0  0  0  0  0
   -1.1270   -6.3459    0.0000 C   0  0  0  0  0  0  0  0  0  0  0  0
   -1.4289   -5.2190    0.0000 C   0  0  0  0  0  0  0  0  0  0  0  0
   -1.4289   -4.3940    0.0000 C   0  0  0  0  0  0  0  0  0  0  0  0
   -2.1434   -3.9815    0.0000 C   0  0  0  0  0  0  0  0  0  0  0  0
   -2.1434   -3.1565    0.0000 C   0  0  0  0  0  0  0  0  0  0  0  0
   -1.4289   -2.7440    0.0000 C   0  0  0  0  0  0  0  0  0  0  0  0
   -1.4289   -1.9190    0.0000 C   0  0  0  0  0  0  0  0  0  0  0  0
   -2.1434   -1.5065    0.0000 O   0  0  0  0  0  0  0  0  0  0  0  0
   -0.7145   -1.5065    0.0000 O   0  0  0  0  0  0  0  0  0  0  0  0
   -0.7145   -0.6815    0.0000 C   0  0  0  0  0  0  0  0  0  0  0  0
    0.0000   -0.2690    0.0000 C   0  0  0  0  0  0  0  0  0  0  0  0
    0.7145    0.1435    0.0000 C   0  0  0  0  0  0  0  0  0  0  0  0
    0.7145    0.9685    0.0000 O   0  0  0  0  0  0  0  0  0  0  0  0
    1.4290    1.3810    0.0000 C   0  0  0  0  0  0  0  0  0  0  0  0
    2.1434    0.9685    0.0000 O   0  0  0  0  0  0  0  0  0  0  0  0
    1.4290    2.2060    0.0000 C   0  0  0  0  0  0  0  0  0  0  0  0
    2.1434    2.6185    0.0000 C   0  0  0  0  0  0  0  0  0  0  0  0
    2.1434    3.4435    0.0000 C   0  0  0  0  0  0  0  0  0  0  0  0
    2.8579    3.8560    0.0000 C   0  0  0  0  0  0  0  0  0  0  0  0
    2.8579    4.6810    0.0000 C   0  0  0  0  0  0  0  0  0  0  0  0
    3.5724    5.0935    0.0000 C   0  0  0  0  0  0  0  0  0  0  0  0
    4.2868    5.5060    0.0000 C   0  0  0  0  0  0  0  0  0  0  0  0
    3.9849    4.3791    0.0000 C   0  0  0  0  0  0  0  0  0  0  0  0
    3.1599    5.8080    0.0000 C   0  0  0  0  0  0  0  0  0  0  0  0
    2.1434    5.0935    0.0000 C   0  0  0  0  0  0  0  0  0  0  0  0
    2.1434    5.9185    0.0000 O   0  0  0  0  0  0  0  0  0  0  0  0
    1.4290    4.6810    0.0000 C   0  0  0  0  0  0  0  0  0  0  0  0
    0.7145    5.0935    0.0000 C   0  0  0  0  0  0  0  0  0  0  0  0
    0.0000    5.5060    0.0000 C   0  0  0  0  0  0  0  0  0  0  0  0
    0.3020    4.3791    0.0000 C   0  0  0  0  0  0  0  0  0  0  0  0
    1.1270    5.8080    0.0000 C   0  0  0  0  0  0  0  0  0  0  0  0
    1.4290    3.8560    0.0000 C   0  0  0  0  0  0  0  0  0  0  0  0
    0.4125   -0.9834    0.0000 C   0  0  0  0  0  0  0  0  0  0  0  0
    1.2375   -0.9834    0.0000 O   0  0  0  0  0  0  0  0  0  0  0  0
    1.6500   -1.6979    0.0000 C   0  0  0  0  0  0  0  0  0  0  0  0
    1.2375   -2.4124    0.0000 O   0  0  0  0  0  0  0  0  0  0  0  0
    2.4750   -1.6979    0.0000 C   0  0  0  0  0  0  0  0  0  0  0  0
    2.8875   -0.9834    0.0000 C   0  0  0  0  0  0  0  0  0  0  0  0
    3.7125   -0.9834    0.0000 C   0  0  0  0  0  0  0  0  0  0  0  0
    4.1250   -1.6979    0.0000 C   0  0  0  0  0  0  0  0  0  0  0  0
    4.9500   -1.6979    0.0000 C   0  0  0  0  0  0  0  0  0  0  0  0
    5.3625   -2.4124    0.0000 C   0  0  0  0  0  0  0  0  0  0  0  0
    5.7750   -3.1269    0.0000 C   0  0  0  0  0  0  0  0  0  0  0  0
    6.0770   -1.9999    0.0000 C   0  0  0  0  0  0  0  0  0  0  0  0
    4.6480   -2.8249    0.0000 C   0  0  0  0  0  0  0  0  0  0  0  0
    5.3625   -0.9834    0.0000 C   0  0  0  0  0  0  0  0  0  0  0  0
    6.1875   -0.9834    0.0000 O   0  0  0  0  0  0  0  0  0  0  0  0
    4.9500   -0.2690    0.0000 C   0  0  0  0  0  0  0  0  0  0  0  0
    5.3625    0.4455    0.0000 C   0  0  0  0  0  0  0  0  0  0  0  0
    5.7750    1.1600    0.0000 C   0  0  0  0  0  0  0  0  0  0  0  0
    4.6480    0.8580    0.0000 C   0  0  0  0  0  0  0  0  0  0  0  0
    6.0770    0.0330    0.0000 C   0  0  0  0  0  0  0  0  0  0  0  0
    4.1250   -0.2690    0.0000 C   0  0  0  0  0  0  0  0  0  0  0  0
   -0.4125    0.4455    0.0000 C   0  0  0  0  0  0  0  0  0  0  0  0
   -1.2375    0.4455    0.0000 O   0  0  0  0  0  0  0  0  0  0  0  0
   -1.6500    1.1600    0.0000 C   0  0  0  0  0  0  0  0  0  0  0  0
   -1.2375    1.8744    0.0000 O   0  0  0  0  0  0  0  0  0  0  0  0
   -2.4750    1.1600    0.0000 C   0  0  0  0  0  0  0  0  0  0  0  0
   -2.8875    1.8744    0.0000 C   0  0  0  0  0  0  0  0  0  0  0  0
   -3.7125    1.8744    0.0000 C   0  0  0  0  0  0  0  0  0  0  0  0
   -4.1250    2.5889    0.0000 C   0  0  0  0  0  0  0  0  0  0  0  0
   -4.9500    2.5889    0.0000 C   0  0  0  0  0  0  0  0  0  0  0  0
   -5.3625    3.3034    0.0000 C   0  0  0  0  0  0  0  0  0  0  0  0
   -5.7750    4.0178    0.0000 C   0  0  0  0  0  0  0  0  0  0  0  0
   -6.0770    2.8909    0.0000 C   0  0  0  0  0  0  0  0  0  0  0  0
   -4.6480    3.7159    0.0000 C   0  0  0  0  0  0  0  0  0  0  0  0
   -5.3625    1.8744    0.0000 C   0  0  0  0  0  0  0  0  0  0  0  0
   -6.1875    1.8744    0.0000 O   0  0  0  0  0  0  0  0  0  0  0  0
   -4.9500    1.1600    0.0000 C   0  0  0  0  0  0  0  0  0  0  0  0
   -5.3625    0.4455    0.0000 C   0  0  0  0  0  0  0  0  0  0  0  0
   -5.7750   -0.2690    0.0000 C   0  0  0  0  0  0  0  0  0  0  0  0
   -4.6480    0.0330    0.0000 C   0  0  0  0  0  0  0  0  0  0  0  0
   -6.0770    0.8580    0.0000 C   0  0  0  0  0  0  0  0  0  0  0  0
   -4.1250    1.1600    0.0000 C   0  0  0  0  0  0  0  0  0  0  0  0
   -2.8579   -4.3940    0.0000 C   0  0  0  0  0  0  0  0  0  0  0  0
   -2.8579   -5.2190    0.0000 C   0  0  0  0  0  0  0  0  0  0  0  0
   -3.5723   -5.6315    0.0000 C   0  0  0  0  0  0  0  0  0  0  0  0
   -4.2868   -6.0440    0.0000 C   0  0  0  0  0  0  0  0  0  0  0  0
   -3.1598   -6.3459    0.0000 C   0  0  0  0  0  0  0  0  0  0  0  0
   -3.9848   -4.9170    0.0000 C   0  0  0  0  0  0  0  0  0  0  0  0
   -2.1434   -5.6315    0.0000 C   0  0  0  0  0  0  0  0  0  0  0  0
   -2.1434   -6.4565    0.0000 O   0  0  0  0  0  0  0  0  0  0  0  0
  1  2  1  0  0  0  0
  2  3  1  0  0  0  0
  2  4  1  0  0  0  0
  2  5  1  0  0  0  0
  6  5  2  0  0  0  0
  7  6  1  0  0  0  0
  7  8  1  0  0  0  0
  8  9  1  0  0  0  0
  9 10  1  0  0  0  0
 10 11  2  0  0  0  0
 10 12  1  0  0  0  0
 12 13  1  0  0  0  0
 13 14  1  0  0  0  0
 14 15  1  0  0  0  0
 15 16  1  0  0  0  0
 16 17  1  0  0  0  0
 17 18  2  0  0  0  0
 17 19  1  0  0  0  0
 19 20  1  0  0  0  0
 20 21  1  0  0  0  0
 22 21  2  0  0  0  0
 23 22  1  0  0  0  0
 23 24  1  0  0  0  0
 24 25  1  0  0  0  0
 24 26  1  0  0  0  0
 24 27  1  0  0  0  0
 28 23  2  0  0  0  0
 28 29  1  0  0  0  0
 30 28  1  0  0  0  0
 30 31  1  0  0  0  0
 31 32  1  0  0  0  0
 31 33  1  0  0  0  0
 31 34  1  0  0  0  0
 35 30  2  0  0  0  0
 21 35  1  0  0  0  0
 14 36  1  0  0  0  0
 36 37  1  0  0  0  0
 37 38  1  0  0  0  0
 38 39  2  0  0  0  0
 38 40  1  0  0  0  0
 40 41  1  0  0  0  0
 41 42  1  0  0  0  0
 43 42  2  0  0  0  0
 44 43  1  0  0  0  0
 44 45  1  0  0  0  0
 45 46  1  0  0  0  0
 45 47  1  0  0  0  0
 45 48  1  0  0  0  0
 49 44  2  0  0  0  0
 49 50  1  0  0  0  0
 51 49  1  0  0  0  0
 51 52  1  0  0  0  0
 52 53  1  0  0  0  0
 52 54  1  0  0  0  0
 52 55  1  0  0  0  0
 56 51  2  0  0  0  0
 42 56  1  0  0  0  0
 14 57  1  0  0  0  0
 57 58  1  0  0  0  0
 58 59  1  0  0  0  0
 59 60  2  0  0  0  0
 59 61  1  0  0  0  0
 61 62  1  0  0  0  0
 62 63  1  0  0  0  0
 64 63  2  0  0  0  0
 65 64  1  0  0  0  0
 65 66  1  0  0  0  0
 66 67  1  0  0  0  0
 66 68  1  0  0  0  0
 66 69  1  0  0  0  0
 70 65  2  0  0  0  0
 70 71  1  0  0  0  0
 72 70  1  0  0  0  0
 72 73  1  0  0  0  0
 73 74  1  0  0  0  0
 73 75  1  0  0  0  0
 73 76  1  0  0  0  0
 77 72  2  0  0  0  0
 63 77  1  0  0  0  0
 78  7  2  0  0  0  0
 79 78  1  0  0  0  0
 79 80  1  0  0  0  0
 80 81  1  0  0  0  0
 80 82  1  0  0  0  0
 80 83  1  0  0  0  0
 84 79  2  0  0  0  0
  5 84  1  0  0  0  0
 84 85  1  0  0  0  0
M  END
> <ChemID>
201407

> <CAS>
6683-19-8

> <Original_SMILES>
CC(C)(C)c1cc(CCC(=O)OCC(COC(=O)CCc2cc(c(O)c(c2)C(C)(C)C)C(C)(C)C)(COC(=O)CCc2cc(c(O)c(c2)C(C)(C)C)C(C)(C)C)COC(=O)CCc2cc(c(O)c(c2)C(C)(C)C)C(C)(C)C)cc(c1O)C(C)(C)C

> <preferred_name>
Irganox 1010

> <dsstox_substance_id>
DTXSID1027633

> <dsstox_compound_id>
DTXCID007633

> <qc_level>


> <Canonical_QSARr>
CC(C)(C)C1=CC(CCC(=O)OCC(COC(=O)CCC2=CC(=C(O)C(=C2)C(C)(C)C)C(C)(C)C)(COC(=O)CCC2=CC(=C(O)C(=C2)C(C)(C)C)C(C)(C)C)COC(=O)CCC2=CC(=C(O)C(=C2)C(C)(C)C)C(C)(C)C)=CC(=C1O)C(C)(C)C

> <InChI_Code_QSARr>
InChI=1S/C73H108O12/c1-65(2,3)49-33-45(34-50(61(49)78)66(4,5)6)25-29-57(74)82-41-73(42-83-58(75)30-26-46-35-51(67(7,8)9)62(79)52(36-46)68(10,11)12,43-84-59(76)31-27-47-37-53(69(13,14)15)63(80)54(38-47)70(16,17)18)44-85-60(77)32-28-48-39-55(71(19,20)21)64(81)56(40-48)72(22,23)24/h33-40,78-81H,25-32,41-44H2,1-24H3

> <InChI Key_QSARr>
BGYHLZZASRKEJE-UHFFFAOYSA-N

> <Salt_Solvent>


> <Salt_Solvent_ID>
0

> <MPID>
101267

> <Tr_1_Tst_0>
1

> <Ready_Biodeg>
0.0

$$$$
Row1233
  Mrv171c012251911052D          

 57 60  0  0  0  0            999 V2000
   -2.1435   -0.4124    0.0000 C   0  0  0  0  0  0  0  0  0  0  0  0
   -2.8580    0.0001    0.0000 C   0  0  0  0  0  0  0  0  0  0  0  0
   -2.4455    0.7145    0.0000 C   0  0  0  0  0  0  0  0  0  0  0  0
   -3.2705   -0.7144    0.0000 C   0  0  0  0  0  0  0  0  0  0  0  0
   -3.5724    0.4126    0.0000 C   0  0  0  0  0  0  0  0  0  0  0  0
   -3.5724    1.2376    0.0000 C   0  0  0  0  0  0  0  0  0  0  0  0
   -4.2869    1.6501    0.0000 C   0  0  0  0  0  0  0  0  0  0  0  0
   -4.2869    2.4751    0.0000 C   0  0  0  0  0  0  0  0  0  0  0  0
   -3.5724    2.8876    0.0000 N   0  0  0  0  0  0  0  0  0  0  0  0
   -2.8580    2.4751    0.0000 C   0  0  0  0  0  0  0  0  0  0  0  0
   -2.8580    1.6501    0.0000 O   0  0  0  0  0  0  0  0  0  0  0  0
   -2.1435    2.8876    0.0000 N   0  0  0  0  0  0  0  0  0  0  0  0
   -1.4290    2.4751    0.0000 C   0  0  0  0  0  0  0  0  0  0  0  0
   -0.7146    2.8876    0.0000 C   0  0  0  0  0  0  0  0  0  0  0  0
   -0.0001    2.4751    0.0000 C   0  0  0  0  0  0  0  0  0  0  0  0
    0.7144    2.8876    0.0000 C   0  0  0  0  0  0  0  0  0  0  0  0
    1.4289    2.4751    0.0000 C   0  0  0  0  0  0  0  0  0  0  0  0
    2.1433    2.0626    0.0000 C   0  0  0  0  0  0  0  0  0  0  0  0
    1.0164    1.7606    0.0000 C   0  0  0  0  0  0  0  0  0  0  0  0
    1.8414    3.1895    0.0000 C   0  0  0  0  0  0  0  0  0  0  0  0
    0.7144    3.7126    0.0000 C   0  0  0  0  0  0  0  0  0  0  0  0
    1.4289    4.1251    0.0000 O   0  0  0  0  0  0  0  0  0  0  0  0
   -0.0001    4.1251    0.0000 C   0  0  0  0  0  0  0  0  0  0  0  0
   -0.0001    4.9501    0.0000 C   0  0  0  0  0  0  0  0  0  0  0  0
   -0.0001    5.7751    0.0000 C   0  0  0  0  0  0  0  0  0  0  0  0
   -0.8251    4.9501    0.0000 C   0  0  0  0  0  0  0  0  0  0  0  0
    0.8249    4.9501    0.0000 C   0  0  0  0  0  0  0  0  0  0  0  0
   -0.7146    3.7126    0.0000 C   0  0  0  0  0  0  0  0  0  0  0  0
   -2.1435    3.7126    0.0000 C   0  0  0  0  0  0  0  0  0  0  0  0
   -1.4290    4.1251    0.0000 O   0  0  0  0  0  0  0  0  0  0  0  0
   -2.8580    4.1251    0.0000 N   0  0  0  0  0  0  0  0  0  0  0  0
   -2.8580    4.9501    0.0000 C   0  0  0  0  0  0  0  0  0  0  0  0
   -3.5724    5.3626    0.0000 C   0  0  0  0  0  0  0  0  0  0  0  0
   -3.5724    6.1876    0.0000 C   0  0  0  0  0  0  0  0  0  0  0  0
   -4.2869    6.6001    0.0000 C   0  0  0  0  0  0  0  0  0  0  0  0
   -4.2869    7.4251    0.0000 C   0  0  0  0  0  0  0  0  0  0  0  0
   -4.2869    8.2501    0.0000 C   0  0  0  0  0  0  0  0  0  0  0  0
   -5.1119    7.4251    0.0000 C   0  0  0  0  0  0  0  0  0  0  0  0
   -3.4619    7.4251    0.0000 C   0  0  0  0  0  0  0  0  0  0  0  0
   -5.0014    6.1876    0.0000 C   0  0  0  0  0  0  0  0  0  0  0  0
   -5.7159    6.6001    0.0000 O   0  0  0  0  0  0  0  0  0  0  0  0
   -5.0014    5.3626    0.0000 C   0  0  0  0  0  0  0  0  0  0  0  0
   -5.7159    4.9501    0.0000 C   0  0  0  0  0  0  0  0  0  0  0  0
   -6.4303    4.5376    0.0000 C   0  0  0  0  0  0  0  0  0  0  0  0
   -5.3034    4.2356    0.0000 C   0  0  0  0  0  0  0  0  0  0  0  0
   -6.1284    5.6645    0.0000 C   0  0  0  0  0  0  0  0  0  0  0  0
   -4.2869    4.9501    0.0000 C   0  0  0  0  0  0  0  0  0  0  0  0
   -3.5724    3.7126    0.0000 C   0  0  0  0  0  0  0  0  0  0  0  0
   -4.2869    4.1251    0.0000 O   0  0  0  0  0  0  0  0  0  0  0  0
   -5.0014    1.2376    0.0000 C   0  0  0  0  0  0  0  0  0  0  0  0
   -5.0014    0.4126    0.0000 C   0  0  0  0  0  0  0  0  0  0  0  0
   -5.7159    0.0001    0.0000 C   0  0  0  0  0  0  0  0  0  0  0  0
   -6.4303   -0.4124    0.0000 C   0  0  0  0  0  0  0  0  0  0  0  0
   -5.3034   -0.7144    0.0000 C   0  0  0  0  0  0  0  0  0  0  0  0
   -6.1284    0.7145    0.0000 C   0  0  0  0  0  0  0  0  0  0  0  0
   -4.2869    0.0001    0.0000 C   0  0  0  0  0  0  0  0  0  0  0  0
   -4.2869   -0.8249    0.0000 O   0  0  0  0  0  0  0  0  0  0  0  0
  1  2  1  0  0  0  0
  2  3  1  0  0  0  0
  2  4  1  0  0  0  0
  2  5  1  0  0  0  0
  6  5  2  0  0  0  0
  7  6  1  0  0  0  0
  7  8  1  0  0  0  0
  8  9  1  0  0  0  0
 10  9  1  0  0  0  0
 10 11  2  0  0  0  0
 12 10  1  0  0  0  0
 12 13  1  0  0  0  0
 13 14  1  0  0  0  0
 15 14  2  0  0  0  0
 16 15  1  0  0  0  0
 16 17  1  0  0  0  0
 17 18  1  0  0  0  0
 17 19  1  0  0  0  0
 17 20  1  0  0  0  0
 21 16  2  0  0  0  0
 21 22  1  0  0  0  0
 23 21  1  0  0  0  0
 23 24  1  0  0  0  0
 24 25  1  0  0  0  0
 24 26  1  0  0  0  0
 24 27  1  0  0  0  0
 28 23  2  0  0  0  0
 14 28  1  0  0  0  0
 29 12  1  0  0  0  0
 29 30  2  0  0  0  0
 31 29  1  0  0  0  0
 31 32  1  0  0  0  0
 32 33  1  0  0  0  0
 34 33  2  0  0  0  0
 35 34  1  0  0  0  0
 35 36  1  0  0  0  0
 36 37  1  0  0  0  0
 36 38  1  0  0  0  0
 36 39  1  0  0  0  0
 40 35  2  0  0  0  0
 40 41  1  0  0  0  0
 42 40  1  0  0  0  0
 42 43  1  0  0  0  0
 43 44  1  0  0  0  0
 43 45  1  0  0  0  0
 43 46  1  0  0  0  0
 47 42  2  0  0  0  0
 33 47  1  0  0  0  0
 48 31  1  0  0  0  0
  9 48  1  0  0  0  0
 48 49  2  0  0  0  0
 50  7  2  0  0  0  0
 51 50  1  0  0  0  0
 51 52  1  0  0  0  0
 52 53  1  0  0  0  0
 52 54  1  0  0  0  0
 52 55  1  0  0  0  0
 56 51  2  0  0  0  0
  5 56  1  0  0  0  0
 56 57  1  0  0  0  0
M  END
> <ChemID>
201408

> <CAS>
27676-62-6

> <Original_SMILES>
CC(C)(C)c1cc(CN2C(=O)N(Cc3cc(c(O)c(c3)C(C)(C)C)C(C)(C)C)C(=O)N(Cc3cc(c(O)c(c3)C(C)(C)C)C(C)(C)C)C2=O)cc(c1O)C(C)(C)C

> <preferred_name>
1,3,5-Triazine-2,4,6(1H,3H,5H)-trione, 1,3,5-tris[[3,5-bis(1,1-dimethylethyl)-4-hydroxyphenyl]methyl]-

> <dsstox_substance_id>
DTXSID0027935

> <dsstox_compound_id>
DTXCID407935

> <qc_level>


> <Canonical_QSARr>
CC(C)(C)C1=CC(CN2C(=O)N(CC3=CC(=C(O)C(=C3)C(C)(C)C)C(C)(C)C)C(=O)N(CC3=CC(=C(O)C(=C3)C(C)(C)C)C(C)(C)C)C2=O)=CC(=C1O)C(C)(C)C

> <InChI_Code_QSARr>
InChI=1S/C48H69N3O6/c1-43(2,3)31-19-28(20-32(37(31)52)44(4,5)6)25-49-40(55)50(26-29-21-33(45(7,8)9)38(53)34(22-29)46(10,11)12)42(57)51(41(49)56)27-30-23-35(47(13,14)15)39(54)36(24-30)48(16,17)18/h19-24,52-54H,25-27H2,1-18H3

> <InChI Key_QSARr>
VNQNXQYZMPJLQX-UHFFFAOYSA-N

> <Salt_Solvent>


> <Salt_Solvent_ID>
0

> <MPID>
101268

> <Tr_1_Tst_0>
1

> <Ready_Biodeg>
0.0

$$$$
Row1234
  Mrv171c012251911052D          

 17 17  0  0  0  0            999 V2000
    0.6803   -0.6783    0.0000 C   0  0  0  0  0  0  0  0  0  0  0  0
   -0.0341   -0.2658    0.0000 C   0  0  0  0  0  0  0  0  0  0  0  0
    0.3784    0.4486    0.0000 C   0  0  0  0  0  0  0  0  0  0  0  0
   -0.4466   -0.9803    0.0000 C   0  0  0  0  0  0  0  0  0  0  0  0
   -0.7486    0.1467    0.0000 C   0  0  0  0  0  0  0  0  0  0  0  0
   -0.7486    0.9717    0.0000 C   0  0  0  0  0  0  0  0  0  0  0  0
   -1.4631    1.3842    0.0000 C   0  0  0  0  0  0  0  0  0  0  0  0
   -1.4631    2.2092    0.0000 C   0  0  0  0  0  0  0  0  0  0  0  0
   -2.1776    2.6217    0.0000 O   0  0  0  0  0  0  0  0  0  0  0  0
   -2.1776    0.9717    0.0000 C   0  0  0  0  0  0  0  0  0  0  0  0
   -2.1776    0.1467    0.0000 C   0  0  0  0  0  0  0  0  0  0  0  0
   -2.8920   -0.2658    0.0000 C   0  0  0  0  0  0  0  0  0  0  0  0
   -3.6065   -0.6783    0.0000 C   0  0  0  0  0  0  0  0  0  0  0  0
   -2.4795   -0.9803    0.0000 C   0  0  0  0  0  0  0  0  0  0  0  0
   -3.3045    0.4486    0.0000 C   0  0  0  0  0  0  0  0  0  0  0  0
   -1.4631   -0.2658    0.0000 C   0  0  0  0  0  0  0  0  0  0  0  0
   -1.4631   -1.0908    0.0000 O   0  0  0  0  0  0  0  0  0  0  0  0
  1  2  1  0  0  0  0
  2  3  1  0  0  0  0
  2  4  1  0  0  0  0
  2  5  1  0  0  0  0
  6  5  2  0  0  0  0
  7  6  1  0  0  0  0
  7  8  1  0  0  0  0
  8  9  1  0  0  0  0
 10  7  2  0  0  0  0
 11 10  1  0  0  0  0
 11 12  1  0  0  0  0
 12 13  1  0  0  0  0
 12 14  1  0  0  0  0
 12 15  1  0  0  0  0
 16 11  2  0  0  0  0
  5 16  1  0  0  0  0
 16 17  1  0  0  0  0
M  END
> <ChemID>
201409

> <CAS>
88-26-6

> <Original_SMILES>
CC(C)(C)c1cc(CO)cc(c1O)C(C)(C)C

> <preferred_name>
di-tert-Butyl-4-hydroxymethyl phenol

> <dsstox_substance_id>
DTXSID7020211

> <dsstox_compound_id>
DTXCID70211

> <qc_level>


> <Canonical_QSARr>
CC(C)(C)C1=CC(CO)=CC(=C1O)C(C)(C)C

> <InChI_Code_QSARr>
InChI=1S/C15H24O2/c1-14(2,3)11-7-10(9-16)8-12(13(11)17)15(4,5)6/h7-8,16-17H,9H2,1-6H3

> <InChI Key_QSARr>
HNURKXXMYARGAY-UHFFFAOYSA-N

> <Salt_Solvent>


> <Salt_Solvent_ID>
0

> <MPID>
101269

> <Tr_1_Tst_0>
0

> <Ready_Biodeg>
0.0

$$$$
Row1235
  Mrv171c012251911052D          

 57 60  0  0  0  0            999 V2000
   -2.8580    1.6500    0.0000 C   0  0  0  0  0  0  0  0  0  0  0  0
   -3.5725    1.2375    0.0000 C   0  0  0  0  0  0  0  0  0  0  0  0
   -4.2870    1.6500    0.0000 C   0  0  0  0  0  0  0  0  0  0  0  0
   -4.2870    2.4750    0.0000 C   0  0  0  0  0  0  0  0  0  0  0  0
   -5.0014    2.8875    0.0000 C   0  0  0  0  0  0  0  0  0  0  0  0
   -5.0014    3.7125    0.0000 C   0  0  0  0  0  0  0  0  0  0  0  0
   -5.7159    4.1250    0.0000 C   0  0  0  0  0  0  0  0  0  0  0  0
   -5.7159    4.9500    0.0000 C   0  0  0  0  0  0  0  0  0  0  0  0
   -5.7159    5.7750    0.0000 C   0  0  0  0  0  0  0  0  0  0  0  0
   -6.5409    4.9500    0.0000 C   0  0  0  0  0  0  0  0  0  0  0  0
   -4.8909    4.9500    0.0000 C   0  0  0  0  0  0  0  0  0  0  0  0
   -6.4304    3.7125    0.0000 C   0  0  0  0  0  0  0  0  0  0  0  0
   -7.1448    4.1250    0.0000 O   0  0  0  0  0  0  0  0  0  0  0  0
   -6.4304    2.8875    0.0000 C   0  0  0  0  0  0  0  0  0  0  0  0
   -7.1448    2.4750    0.0000 C   0  0  0  0  0  0  0  0  0  0  0  0
   -7.8593    2.0625    0.0000 C   0  0  0  0  0  0  0  0  0  0  0  0
   -6.7323    1.7605    0.0000 C   0  0  0  0  0  0  0  0  0  0  0  0
   -7.5573    3.1895    0.0000 C   0  0  0  0  0  0  0  0  0  0  0  0
   -5.7159    2.4750    0.0000 C   0  0  0  0  0  0  0  0  0  0  0  0
   -5.0014    1.2375    0.0000 C   0  0  0  0  0  0  0  0  0  0  0  0
   -5.7159    1.6500    0.0000 C   0  0  0  0  0  0  0  0  0  0  0  0
   -5.0014    0.4125    0.0000 C   0  0  0  0  0  0  0  0  0  0  0  0
   -5.7159   -0.0000    0.0000 C   0  0  0  0  0  0  0  0  0  0  0  0
   -5.7159   -0.8250    0.0000 C   0  0  0  0  0  0  0  0  0  0  0  0
   -6.4304   -1.2375    0.0000 C   0  0  0  0  0  0  0  0  0  0  0  0
   -6.4304   -2.0625    0.0000 C   0  0  0  0  0  0  0  0  0  0  0  0
   -7.1448   -2.4750    0.0000 C   0  0  0  0  0  0  0  0  0  0  0  0
   -7.8593   -2.8875    0.0000 C   0  0  0  0  0  0  0  0  0  0  0  0
   -7.5573   -1.7605    0.0000 C   0  0  0  0  0  0  0  0  0  0  0  0
   -6.7323   -3.1895    0.0000 C   0  0  0  0  0  0  0  0  0  0  0  0
   -5.7159   -2.4750    0.0000 C   0  0  0  0  0  0  0  0  0  0  0  0
   -5.7159   -3.3000    0.0000 O   0  0  0  0  0  0  0  0  0  0  0  0
   -5.0014   -2.0625    0.0000 C   0  0  0  0  0  0  0  0  0  0  0  0
   -4.2870   -2.4750    0.0000 C   0  0  0  0  0  0  0  0  0  0  0  0
   -3.5725   -2.8875    0.0000 C   0  0  0  0  0  0  0  0  0  0  0  0
   -3.8745   -1.7605    0.0000 C   0  0  0  0  0  0  0  0  0  0  0  0
   -4.6995   -3.1895    0.0000 C   0  0  0  0  0  0  0  0  0  0  0  0
   -5.0014   -1.2375    0.0000 C   0  0  0  0  0  0  0  0  0  0  0  0
   -4.2870   -0.0000    0.0000 C   0  0  0  0  0  0  0  0  0  0  0  0
   -4.2870   -0.8250    0.0000 C   0  0  0  0  0  0  0  0  0  0  0  0
   -3.5725    0.4125    0.0000 C   0  0  0  0  0  0  0  0  0  0  0  0
   -2.8580   -0.0000    0.0000 C   0  0  0  0  0  0  0  0  0  0  0  0
   -2.1435    0.4125    0.0000 C   0  0  0  0  0  0  0  0  0  0  0  0
   -1.4291   -0.0000    0.0000 C   0  0  0  0  0  0  0  0  0  0  0  0
   -0.7146    0.4125    0.0000 C   0  0  0  0  0  0  0  0  0  0  0  0
   -0.0001   -0.0000    0.0000 C   0  0  0  0  0  0  0  0  0  0  0  0
    0.7143   -0.4125    0.0000 C   0  0  0  0  0  0  0  0  0  0  0  0
    0.4124    0.7145    0.0000 C   0  0  0  0  0  0  0  0  0  0  0  0
   -0.4126   -0.7145    0.0000 C   0  0  0  0  0  0  0  0  0  0  0  0
   -0.7146    1.2375    0.0000 C   0  0  0  0  0  0  0  0  0  0  0  0
   -0.0001    1.6500    0.0000 O   0  0  0  0  0  0  0  0  0  0  0  0
   -1.4291    1.6500    0.0000 C   0  0  0  0  0  0  0  0  0  0  0  0
   -1.4291    2.4750    0.0000 C   0  0  0  0  0  0  0  0  0  0  0  0
   -1.4291    3.3000    0.0000 C   0  0  0  0  0  0  0  0  0  0  0  0
   -2.2541    2.4750    0.0000 C   0  0  0  0  0  0  0  0  0  0  0  0
   -0.6041    2.4750    0.0000 C   0  0  0  0  0  0  0  0  0  0  0  0
   -2.1435    1.2375    0.0000 C   0  0  0  0  0  0  0  0  0  0  0  0
  1  2  1  0  0  0  0
  3  2  2  0  0  0  0
  3  4  1  0  0  0  0
  4  5  1  0  0  0  0
  6  5  2  0  0  0  0
  7  6  1  0  0  0  0
  7  8  1  0  0  0  0
  8  9  1  0  0  0  0
  8 10  1  0  0  0  0
  8 11  1  0  0  0  0
 12  7  2  0  0  0  0
 12 13  1  0  0  0  0
 14 12  1  0  0  0  0
 14 15  1  0  0  0  0
 15 16  1  0  0  0  0
 15 17  1  0  0  0  0
 15 18  1  0  0  0  0
 19 14  2  0  0  0  0
  5 19  1  0  0  0  0
 20  3  1  0  0  0  0
 20 21  1  0  0  0  0
 22 20  2  0  0  0  0
 22 23  1  0  0  0  0
 23 24  1  0  0  0  0
 25 24  2  0  0  0  0
 26 25  1  0  0  0  0
 26 27  1  0  0  0  0
 27 28  1  0  0  0  0
 27 29  1  0  0  0  0
 27 30  1  0  0  0  0
 31 26  2  0  0  0  0
 31 32  1  0  0  0  0
 33 31  1  0  0  0  0
 33 34  1  0  0  0  0
 34 35  1  0  0  0  0
 34 36  1  0  0  0  0
 34 37  1  0  0  0  0
 38 33  2  0  0  0  0
 24 38  1  0  0  0  0
 39 22  1  0  0  0  0
 39 40  1  0  0  0  0
 41 39  2  0  0  0  0
  2 41  1  0  0  0  0
 41 42  1  0  0  0  0
 42 43  1  0  0  0  0
 44 43  2  0  0  0  0
 45 44  1  0  0  0  0
 45 46  1  0  0  0  0
 46 47  1  0  0  0  0
 46 48  1  0  0  0  0
 46 49  1  0  0  0  0
 50 45  2  0  0  0  0
 50 51  1  0  0  0  0
 52 50  1  0  0  0  0
 52 53  1  0  0  0  0
 53 54  1  0  0  0  0
 53 55  1  0  0  0  0
 53 56  1  0  0  0  0
 57 52  2  0  0  0  0
 43 57  1  0  0  0  0
M  END
> <ChemID>
201410

> <CAS>
1709-70-2

> <Original_SMILES>
CC(C)(C)c1cc(Cc2c(C)c(Cc3cc(c(O)c(c3)C(C)(C)C)C(C)(C)C)c(C)c(Cc3cc(c(O)c(c3)C(C)(C)C)C(C)(C)C)c2C)cc(c1O)C(C)(C)C

> <preferred_name>
Ionox 330

> <dsstox_substance_id>
DTXSID6027428

> <dsstox_compound_id>
DTXCID307428

> <qc_level>


> <Canonical_QSARr>
CC(C)(C)C1=CC(CC2C(C)=C(CC3=CC(=C(O)C(=C3)C(C)(C)C)C(C)(C)C)C(C)=C(CC3=CC(=C(O)C(=C3)C(C)(C)C)C(C)(C)C)C=2C)=CC(=C1O)C(C)(C)C

> <InChI_Code_QSARr>
InChI=1S/C54H78O3/c1-31-37(22-34-25-40(49(4,5)6)46(55)41(26-34)50(7,8)9)32(2)39(24-36-29-44(53(16,17)18)48(57)45(30-36)54(19,20)21)33(3)38(31)23-35-27-42(51(10,11)12)47(56)43(28-35)52(13,14)15/h25-30,55-57H,22-24H2,1-21H3

> <InChI Key_QSARr>
VSAWBBYYMBQKIK-UHFFFAOYSA-N

> <Salt_Solvent>


> <Salt_Solvent_ID>
0

> <MPID>
101270

> <Tr_1_Tst_0>
1

> <Ready_Biodeg>
0.0

$$$$
Row1236
  Mrv171c012251911052D          

 18 18  0  0  0  0            999 V2000
    3.7812   -1.1917    0.0000 C   0  0  0  0  0  0  0  0  0  0  0  0
    3.0667   -0.7792    0.0000 C   0  0  0  0  0  0  0  0  0  0  0  0
    3.4792   -0.0647    0.0000 C   0  0  0  0  0  0  0  0  0  0  0  0
    2.6542   -1.4936    0.0000 C   0  0  0  0  0  0  0  0  0  0  0  0
    2.3522   -0.3667    0.0000 C   0  0  0  0  0  0  0  0  0  0  0  0
    2.3522    0.4583    0.0000 C   0  0  0  0  0  0  0  0  0  0  0  0
    1.6377    0.8708    0.0000 C   0  0  0  0  0  0  0  0  0  0  0  0
    1.6377    1.6958    0.0000 C   0  0  0  0  0  0  0  0  0  0  0  0
    0.9233    2.1083    0.0000 O   0  0  0  0  0  0  0  0  0  0  0  0
    2.3522    2.1083    0.0000 O   0  0  0  0  0  0  0  0  0  0  0  0
    0.9233    0.4583    0.0000 C   0  0  0  0  0  0  0  0  0  0  0  0
    0.2088    0.8708    0.0000 O   0  0  0  0  0  0  0  0  0  0  0  0
    0.9233   -0.3667    0.0000 C   0  0  0  0  0  0  0  0  0  0  0  0
    0.2088   -0.7792    0.0000 C   0  0  0  0  0  0  0  0  0  0  0  0
   -0.5057   -1.1917    0.0000 C   0  0  0  0  0  0  0  0  0  0  0  0
    0.6213   -1.4936    0.0000 C   0  0  0  0  0  0  0  0  0  0  0  0
   -0.2037   -0.0647    0.0000 C   0  0  0  0  0  0  0  0  0  0  0  0
    1.6377   -0.7792    0.0000 C   0  0  0  0  0  0  0  0  0  0  0  0
  1  2  1  0  0  0  0
  2  3  1  0  0  0  0
  2  4  1  0  0  0  0
  2  5  1  0  0  0  0
  6  5  2  0  0  0  0
  7  6  1  0  0  0  0
  7  8  1  0  0  0  0
  8  9  1  0  0  0  0
  8 10  2  0  0  0  0
 11  7  2  0  0  0  0
 11 12  1  0  0  0  0
 13 11  1  0  0  0  0
 13 14  1  0  0  0  0
 14 15  1  0  0  0  0
 14 16  1  0  0  0  0
 14 17  1  0  0  0  0
 18 13  2  0  0  0  0
  5 18  1  0  0  0  0
M  END
> <ChemID>
201414

> <CAS>
19715-19-6

> <Original_SMILES>
CC(C)(C)c1cc(cc(C(O)=O)c1O)C(C)(C)C

> <preferred_name>
Benzoic acid, 3,5-bis(1,1-dimethylethyl)-2-hydroxy-

> <dsstox_substance_id>
DTXSID2066519

> <dsstox_compound_id>
DTXCID9036143

> <qc_level>


> <Canonical_QSARr>
CC(C)(C)C1=CC(C(O)=O)=C(O)C(=C1)C(C)(C)C

> <InChI_Code_QSARr>
InChI=1S/C15H22O3/c1-14(2,3)9-7-10(13(17)18)12(16)11(8-9)15(4,5)6/h7-8,16H,1-6H3,(H,17,18)

> <InChI Key_QSARr>
ZWQBZEFLFSFEOS-UHFFFAOYSA-N

> <Salt_Solvent>


> <Salt_Solvent_ID>
0

> <MPID>
101271

> <Tr_1_Tst_0>
1

> <Ready_Biodeg>
0.0

$$$$
Row1237
  Mrv171c012251911052D          

 26 27  0  0  0  0            999 V2000
    1.4289   -0.8250    0.0000 C   0  0  0  0  0  0  0  0  0  0  0  0
    1.4289   -1.6500    0.0000 C   0  0  0  0  0  0  0  0  0  0  0  0
    0.6039   -1.6500    0.0000 C   0  0  0  0  0  0  0  0  0  0  0  0
    2.2539   -1.6500    0.0000 C   0  0  0  0  0  0  0  0  0  0  0  0
    1.4289   -2.4750    0.0000 C   0  0  0  0  0  0  0  0  0  0  0  0
    2.1434   -2.8875    0.0000 C   0  0  0  0  0  0  0  0  0  0  0  0
    2.1434   -3.7125    0.0000 C   0  0  0  0  0  0  0  0  0  0  0  0
    2.8579   -4.1250    0.0000 N   0  0  0  0  0  0  0  0  0  0  0  0
    3.5724   -3.7125    0.0000 N   0  0  0  0  0  0  0  0  0  0  0  0
    4.2868   -4.1250    0.0000 C   0  0  0  0  0  0  0  0  0  0  0  0
    5.0013   -3.7125    0.0000 C   0  0  0  0  0  0  0  0  0  0  0  0
    5.7158   -4.1250    0.0000 C   0  0  0  0  0  0  0  0  0  0  0  0
    5.7158   -4.9500    0.0000 C   0  0  0  0  0  0  0  0  0  0  0  0
    5.0013   -5.3625    0.0000 C   0  0  0  0  0  0  0  0  0  0  0  0
    4.2868   -4.9500    0.0000 C   0  0  0  0  0  0  0  0  0  0  0  0
    3.5724   -5.3625    0.0000 N   0  3  0  0  0  0  0  0  0  0  0  0
    2.8579   -4.9500    0.0000 O   0  5  0  0  0  0  0  0  0  0  0  0
    3.5724   -6.1875    0.0000 O   0  0  0  0  0  0  0  0  0  0  0  0
    1.4289   -4.1250    0.0000 C   0  0  0  0  0  0  0  0  0  0  0  0
    1.4289   -4.9500    0.0000 O   0  0  0  0  0  0  0  0  0  0  0  0
    0.7145   -3.7125    0.0000 C   0  0  0  0  0  0  0  0  0  0  0  0
    0.7145   -2.8875    0.0000 C   0  0  0  0  0  0  0  0  0  0  0  0
    0.0000   -4.1250    0.0000 C   0  0  0  0  0  0  0  0  0  0  0  0
   -0.7145   -4.5375    0.0000 C   0  0  0  0  0  0  0  0  0  0  0  0
   -0.4125   -3.4105    0.0000 C   0  0  0  0  0  0  0  0  0  0  0  0
    0.4125   -4.8395    0.0000 C   0  0  0  0  0  0  0  0  0  0  0  0
  1  2  1  0  0  0  0
  2  3  1  0  0  0  0
  2  4  1  0  0  0  0
  2  5  1  0  0  0  0
  5  6  2  0  0  0  0
  6  7  1  0  0  0  0
  8  7  1  4  0  0  0
  8  9  2  0  0  0  0
  9 10  1  0  0  0  0
 10 11  2  0  0  0  0
 11 12  1  0  0  0  0
 12 13  2  0  0  0  0
 13 14  1  0  0  0  0
 14 15  2  0  0  0  0
 10 15  1  0  0  0  0
 15 16  1  0  0  0  0
 16 17  1  0  0  0  0
 16 18  2  0  0  0  0
  7 19  2  0  0  0  0
 19 20  1  0  0  0  0
 19 21  1  0  0  0  0
 21 22  2  0  0  0  0
  5 22  1  0  0  0  0
 21 23  1  0  0  0  0
 23 24  1  0  0  0  0
 23 25  1  0  0  0  0
 23 26  1  0  0  0  0
M  CHG  2  16   1  17  -1
M  END
> <ChemID>
201415

> <CAS>
52184-14-2

> <Original_SMILES>
CC(C)(C)c1cc(cc(/N=N/c2ccccc2[N+]([O-])=O)c1O)C(C)(C)C

> <preferred_name>


> <dsstox_substance_id>


> <dsstox_compound_id>


> <qc_level>


> <Canonical_QSARr>
CC(C)(C)C1=CC(N=NC2=CC=CC=C2[N+]([O-])=O)=C(O)C(=C1)C(C)(C)C

> <InChI_Code_QSARr>
InChI=1S/C20H25N3O3/c1-19(2,3)13-11-14(20(4,5)6)18(24)16(12-13)22-21-15-9-7-8-10-17(15)23(25)26/h7-12,24H,1-6H3

> <InChI Key_QSARr>
BBUYLEHVHUQHME-UHFFFAOYSA-N

> <Salt_Solvent>


> <Salt_Solvent_ID>
0

> <MPID>
101272

> <Tr_1_Tst_0>
1

> <Ready_Biodeg>
0.0

$$$$
Row1238
  Mrv171c012251911052D          

 25 27  0  0  0  0            999 V2000
   -0.4125   -0.8288    0.0000 C   0  0  0  0  0  0  0  0  0  0  0  0
   -0.0000   -0.1143    0.0000 C   0  0  0  0  0  0  0  0  0  0  0  0
    0.7145   -0.5268    0.0000 C   0  0  0  0  0  0  0  0  0  0  0  0
   -0.7145    0.2982    0.0000 C   0  0  0  0  0  0  0  0  0  0  0  0
    0.4125    0.6002    0.0000 C   0  0  0  0  0  0  0  0  0  0  0  0
    1.2375    0.6002    0.0000 C   0  0  0  0  0  0  0  0  0  0  0  0
    1.6500    1.3146    0.0000 C   0  0  0  0  0  0  0  0  0  0  0  0
    2.4750    1.3146    0.0000 N   0  0  0  0  0  0  0  0  0  0  0  0
    2.9599    1.9821    0.0000 N   0  0  0  0  0  0  0  0  0  0  0  0
    3.7445    1.7271    0.0000 C   0  0  0  0  0  0  0  0  0  0  0  0
    4.4590    2.1396    0.0000 C   0  0  0  0  0  0  0  0  0  0  0  0
    5.1735    1.7271    0.0000 C   0  0  0  0  0  0  0  0  0  0  0  0
    5.1735    0.9021    0.0000 C   0  0  0  0  0  0  0  0  0  0  0  0
    5.8879    0.4896    0.0000 Cl  0  0  0  0  0  0  0  0  0  0  0  0
    4.4590    0.4896    0.0000 C   0  0  0  0  0  0  0  0  0  0  0  0
    3.7445    0.9021    0.0000 C   0  0  0  0  0  0  0  0  0  0  0  0
    2.9599    0.6472    0.0000 N   0  0  0  0  0  0  0  0  0  0  0  0
    1.2375    2.0291    0.0000 C   0  0  0  0  0  0  0  0  0  0  0  0
    1.6500    2.7436    0.0000 O   0  0  0  0  0  0  0  0  0  0  0  0
    0.4125    2.0291    0.0000 C   0  0  0  0  0  0  0  0  0  0  0  0
   -0.0000    2.7436    0.0000 C   0  0  0  0  0  0  0  0  0  0  0  0
   -0.4125    3.4581    0.0000 C   0  0  0  0  0  0  0  0  0  0  0  0
   -0.7145    2.3311    0.0000 C   0  0  0  0  0  0  0  0  0  0  0  0
    0.7145    3.1561    0.0000 C   0  0  0  0  0  0  0  0  0  0  0  0
   -0.0000    1.3146    0.0000 C   0  0  0  0  0  0  0  0  0  0  0  0
  1  2  1  0  0  0  0
  2  3  1  0  0  0  0
  2  4  1  0  0  0  0
  2  5  1  0  0  0  0
  6  5  2  0  0  0  0
  7  6  1  0  0  0  0
  7  8  1  0  0  0  0
  9  8  1  0  0  0  0
 10  9  2  0  0  0  0
 10 11  1  0  0  0  0
 11 12  2  0  0  0  0
 12 13  1  0  0  0  0
 13 14  1  0  0  0  0
 13 15  2  0  0  0  0
 15 16  1  0  0  0  0
 16 10  1  0  0  0  0
 17 16  2  0  0  0  0
  8 17  1  0  0  0  0
 18  7  2  0  0  0  0
 18 19  1  0  0  0  0
 20 18  1  0  0  0  0
 20 21  1  0  0  0  0
 21 22  1  0  0  0  0
 21 23  1  0  0  0  0
 21 24  1  0  0  0  0
 25 20  2  0  0  0  0
  5 25  1  0  0  0  0
M  END
> <ChemID>
201417

> <CAS>
3864-99-1

> <Original_SMILES>
CC(C)(C)c1cc(cc(c1O)-[n]1[n]c2ccc(Cl)cc2[n]1)C(C)(C)C

> <preferred_name>
Phenol, 2-(5-chloro-2H-benzotriazol-2-yl)-4,6-bis(1,1-dimethylethyl)-

> <dsstox_substance_id>
DTXSID4038893

> <dsstox_compound_id>
DTXCID2018893

> <qc_level>


> <Canonical_QSARr>
CC(C)(C)C1C=C(C(O)=C(C=1)N1N=C2C=CC(Cl)=CC2=N1)C(C)(C)C

> <InChI_Code_QSARr>
InChI=1S/C20H24ClN3O/c1-19(2,3)12-9-14(20(4,5)6)18(25)17(10-12)24-22-15-8-7-13(21)11-16(15)23-24/h7-11,25H,1-6H3

> <InChI Key_QSARr>
UWSMKYBKUPAEJQ-UHFFFAOYSA-N

> <Salt_Solvent>


> <Salt_Solvent_ID>
0

> <MPID>
101273

> <Tr_1_Tst_0>
0

> <Ready_Biodeg>
0.0

$$$$
Row1239
  Mrv171c012251911052D          

 24 26  0  0  0  0            999 V2000
   -0.4125   -0.8335    0.0000 C   0  0  0  0  0  0  0  0  0  0  0  0
   -0.0000   -0.1191    0.0000 C   0  0  0  0  0  0  0  0  0  0  0  0
    0.7145   -0.5316    0.0000 C   0  0  0  0  0  0  0  0  0  0  0  0
   -0.7145    0.2934    0.0000 C   0  0  0  0  0  0  0  0  0  0  0  0
    0.4125    0.5954    0.0000 C   0  0  0  0  0  0  0  0  0  0  0  0
    1.2375    0.5954    0.0000 C   0  0  0  0  0  0  0  0  0  0  0  0
    1.6500    1.3099    0.0000 C   0  0  0  0  0  0  0  0  0  0  0  0
    2.4750    1.3099    0.0000 N   0  0  0  0  0  0  0  0  0  0  0  0
    2.9599    1.9773    0.0000 N   0  0  0  0  0  0  0  0  0  0  0  0
    3.7445    1.7224    0.0000 C   0  0  0  0  0  0  0  0  0  0  0  0
    4.4590    2.1349    0.0000 C   0  0  0  0  0  0  0  0  0  0  0  0
    5.1735    1.7224    0.0000 C   0  0  0  0  0  0  0  0  0  0  0  0
    5.1735    0.8974    0.0000 C   0  0  0  0  0  0  0  0  0  0  0  0
    4.4590    0.4849    0.0000 C   0  0  0  0  0  0  0  0  0  0  0  0
    3.7445    0.8974    0.0000 C   0  0  0  0  0  0  0  0  0  0  0  0
    2.9599    0.6424    0.0000 N   0  0  0  0  0  0  0  0  0  0  0  0
    1.2375    2.0243    0.0000 C   0  0  0  0  0  0  0  0  0  0  0  0
    1.6500    2.7388    0.0000 O   0  0  0  0  0  0  0  0  0  0  0  0
    0.4125    2.0243    0.0000 C   0  0  0  0  0  0  0  0  0  0  0  0
   -0.0000    2.7388    0.0000 C   0  0  0  0  0  0  0  0  0  0  0  0
   -0.4125    3.4533    0.0000 C   0  0  0  0  0  0  0  0  0  0  0  0
   -0.7145    2.3263    0.0000 C   0  0  0  0  0  0  0  0  0  0  0  0
    0.7145    3.1513    0.0000 C   0  0  0  0  0  0  0  0  0  0  0  0
   -0.0000    1.3099    0.0000 C   0  0  0  0  0  0  0  0  0  0  0  0
  1  2  1  0  0  0  0
  2  3  1  0  0  0  0
  2  4  1  0  0  0  0
  2  5  1  0  0  0  0
  6  5  2  0  0  0  0
  7  6  1  0  0  0  0
  7  8  1  0  0  0  0
  9  8  1  0  0  0  0
 10  9  2  0  0  0  0
 10 11  1  0  0  0  0
 11 12  2  0  0  0  0
 12 13  1  0  0  0  0
 13 14  2  0  0  0  0
 14 15  1  0  0  0  0
 15 10  1  0  0  0  0
 16 15  2  0  0  0  0
  8 16  1  0  0  0  0
 17  7  2  0  0  0  0
 17 18  1  0  0  0  0
 19 17  1  0  0  0  0
 19 20  1  0  0  0  0
 20 21  1  0  0  0  0
 20 22  1  0  0  0  0
 20 23  1  0  0  0  0
 24 19  2  0  0  0  0
  5 24  1  0  0  0  0
M  END
> <ChemID>
201418

> <CAS>
3846-71-7

> <Original_SMILES>
CC(C)(C)c1cc(cc(c1O)-[n]1[n]c2ccccc2[n]1)C(C)(C)C

> <preferred_name>
2-Benzotriazol-2-yl-4,6-di-tert-butylphenol

> <dsstox_substance_id>
DTXSID4052059

> <dsstox_compound_id>
DTXCID9030626

> <qc_level>


> <Canonical_QSARr>
CC(C)(C)C1C=C(C(O)=C(C=1)N1N=C2C=CC=CC2=N1)C(C)(C)C

> <InChI_Code_QSARr>
InChI=1S/C20H25N3O/c1-19(2,3)13-11-14(20(4,5)6)18(24)17(12-13)23-21-15-9-7-8-10-16(15)22-23/h7-12,24H,1-6H3

> <InChI Key_QSARr>
LHPPDQUVECZQSW-UHFFFAOYSA-N

> <Salt_Solvent>


> <Salt_Solvent_ID>
0

> <MPID>
101274

> <Tr_1_Tst_0>
1

> <Ready_Biodeg>
0.0

$$$$
Row1240
  Mrv171c012251911052D          

 20 22  0  0  0  0            999 V2000
   -5.2156    0.4125    0.0000 C   0  0  0  0  0  0  0  0  0  0  0  0
   -4.5012   -0.0000    0.0000 C   0  0  0  0  0  0  0  0  0  0  0  0
   -4.9137   -0.7145    0.0000 C   0  0  0  0  0  0  0  0  0  0  0  0
   -4.0887    0.7145    0.0000 C   0  0  0  0  0  0  0  0  0  0  0  0
   -3.7867   -0.4125    0.0000 C   0  0  0  0  0  0  0  0  0  0  0  0
   -3.7867   -1.2375    0.0000 C   0  0  0  0  0  0  0  0  0  0  0  0
   -3.0722   -1.6500    0.0000 C   0  0  0  0  0  0  0  0  0  0  0  0
   -2.3577   -1.2375    0.0000 C   0  0  0  0  0  0  0  0  0  0  0  0
   -1.6433   -1.6500    0.0000 C   0  0  0  0  0  0  0  0  0  0  0  0
   -1.6433   -2.4750    0.0000 O   0  0  0  0  0  0  0  0  0  0  0  0
   -0.9288   -1.2375    0.0000 C   0  0  0  0  0  0  0  0  0  0  0  0
   -0.2143   -1.6500    0.0000 C   0  0  0  0  0  0  0  0  0  0  0  0
    0.5001   -1.2375    0.0000 C   0  0  0  0  0  0  0  0  0  0  0  0
    0.5001   -0.4125    0.0000 C   0  0  0  0  0  0  0  0  0  0  0  0
   -0.2143   -0.0000    0.0000 C   0  0  0  0  0  0  0  0  0  0  0  0
   -0.9288   -0.4125    0.0000 C   0  0  0  0  0  0  0  0  0  0  0  0
   -1.6433   -0.0000    0.0000 C   0  0  0  0  0  0  0  0  0  0  0  0
   -1.6433    0.8250    0.0000 O   0  0  0  0  0  0  0  0  0  0  0  0
   -2.3577   -0.4125    0.0000 C   0  0  0  0  0  0  0  0  0  0  0  0
   -3.0722   -0.0000    0.0000 C   0  0  0  0  0  0  0  0  0  0  0  0
  1  2  1  0  0  0  0
  2  3  1  0  0  0  0
  2  4  1  0  0  0  0
  2  5  1  0  0  0  0
  6  5  2  0  0  0  0
  7  6  1  0  0  0  0
  8  7  2  0  0  0  0
  8  9  1  0  0  0  0
  9 10  2  0  0  0  0
  9 11  1  0  0  0  0
 12 11  2  0  0  0  0
 13 12  1  0  0  0  0
 14 13  2  0  0  0  0
 15 14  1  0  0  0  0
 16 15  2  0  0  0  0
 11 16  1  0  0  0  0
 16 17  1  0  0  0  0
 17 18  2  0  0  0  0
 17 19  1  0  0  0  0
 19  8  1  0  0  0  0
 20 19  2  0  0  0  0
  5 20  1  0  0  0  0
M  END
> <ChemID>
201421

> <CAS>
84-47-9

> <Original_SMILES>
CC(C)(C)c1cc2c(cc1)C(=O)c1ccccc1C2=O

> <preferred_name>
9,10-Anthracenedione, 2-(1,1-dimethylethyl)-

> <dsstox_substance_id>
DTXSID3058903

> <dsstox_compound_id>
DTXCID7048378

> <qc_level>


> <Canonical_QSARr>
CC(C)(C)C1C=C2C(=CC=1)C(=O)C1=CC=CC=C1C2=O

> <InChI_Code_QSARr>
InChI=1S/C18H16O2/c1-18(2,3)11-8-9-14-15(10-11)17(20)13-7-5-4-6-12(13)16(14)19/h4-10H,1-3H3

> <InChI Key_QSARr>
YTPSFXZMJKMUJE-UHFFFAOYSA-N

> <Salt_Solvent>


> <Salt_Solvent_ID>
0

> <MPID>
101275

> <Tr_1_Tst_0>
0

> <Ready_Biodeg>
0.0

$$$$
Row1241
  Mrv171c012251911052D          

 11 11  0  0  0  0            999 V2000
   -2.6088   -0.9201    0.0000 C   0  0  0  0  0  0  0  0  0  0  0  0
   -1.8944   -0.5076    0.0000 C   0  0  0  0  0  0  0  0  0  0  0  0
   -1.4819   -1.2220    0.0000 C   0  0  0  0  0  0  0  0  0  0  0  0
   -2.3069    0.2069    0.0000 C   0  0  0  0  0  0  0  0  0  0  0  0
   -1.1799   -0.0951    0.0000 C   0  0  0  0  0  0  0  0  0  0  0  0
   -0.4654   -0.5076    0.0000 C   0  0  0  0  0  0  0  0  0  0  0  0
    0.2490   -0.0951    0.0000 C   0  0  0  0  0  0  0  0  0  0  0  0
    0.2490    0.7299    0.0000 C   0  0  0  0  0  0  0  0  0  0  0  0
   -0.4654    1.1424    0.0000 C   0  0  0  0  0  0  0  0  0  0  0  0
   -0.4654    1.9674    0.0000 O   0  0  0  0  0  0  0  0  0  0  0  0
   -1.1799    0.7299    0.0000 C   0  0  0  0  0  0  0  0  0  0  0  0
  1  2  1  0  0  0  0
  2  3  1  0  0  0  0
  2  4  1  0  0  0  0
  2  5  1  0  0  0  0
  6  5  2  0  0  0  0
  7  6  1  0  0  0  0
  8  7  2  0  0  0  0
  9  8  1  0  0  0  0
  9 10  1  0  0  0  0
 11  9  2  0  0  0  0
  5 11  1  0  0  0  0
M  END
> <ChemID>
201424

> <CAS>
585-34-2

> <Original_SMILES>
CC(C)(C)c1cccc(O)c1

> <preferred_name>
3-tert-Butylphenol

> <dsstox_substance_id>
DTXSID9044825

> <dsstox_compound_id>
DTXCID7024825

> <qc_level>


> <Canonical_QSARr>
CC(C)(C)C1C=C(O)C=CC=1

> <InChI_Code_QSARr>
InChI=1S/C10H14O/c1-10(2,3)8-5-4-6-9(11)7-8/h4-7,11H,1-3H3

> <InChI Key_QSARr>
CYEKUDPFXBLGHH-UHFFFAOYSA-N

> <Salt_Solvent>


> <Salt_Solvent_ID>
0

> <MPID>
101276

> <Tr_1_Tst_0>
1

> <Ready_Biodeg>
0.0

$$$$
Row1242
  Mrv171c012251911052D          

 18 19  0  0  0  0            999 V2000
    0.5075    0.4583    0.0000 C   0  0  0  0  0  0  0  0  0  0  0  0
   -0.3175    0.4583    0.0000 C   0  0  0  0  0  0  0  0  0  0  0  0
   -1.1425    0.4583    0.0000 C   0  0  0  0  0  0  0  0  0  0  0  0
   -0.3175   -0.3667    0.0000 C   0  0  0  0  0  0  0  0  0  0  0  0
   -1.0320   -0.7792    0.0000 C   0  0  0  0  0  0  0  0  0  0  0  0
   -1.7464   -0.3667    0.0000 C   0  0  0  0  0  0  0  0  0  0  0  0
   -1.0320   -1.6042    0.0000 C   0  0  0  0  0  0  0  0  0  0  0  0
   -1.7464   -2.0167    0.0000 C   0  0  0  0  0  0  0  0  0  0  0  0
   -1.7464   -2.8417    0.0000 C   0  0  0  0  0  0  0  0  0  0  0  0
   -1.0320   -3.2542    0.0000 C   0  0  0  0  0  0  0  0  0  0  0  0
   -0.3175   -2.8417    0.0000 C   0  0  0  0  0  0  0  0  0  0  0  0
   -0.3175   -2.0167    0.0000 C   0  0  0  0  0  0  0  0  0  0  0  0
   -0.3175    1.2833    0.0000 C   0  0  0  0  0  0  0  0  0  0  0  0
    0.3970    1.6958    0.0000 C   0  0  0  0  0  0  0  0  0  0  0  0
    0.3970    2.5208    0.0000 C   0  0  0  0  0  0  0  0  0  0  0  0
   -0.3175    2.9333    0.0000 C   0  0  0  0  0  0  0  0  0  0  0  0
   -1.0320    2.5208    0.0000 C   0  0  0  0  0  0  0  0  0  0  0  0
   -1.0320    1.6958    0.0000 C   0  0  0  0  0  0  0  0  0  0  0  0
  1  2  1  0  0  0  0
  2  3  1  0  0  0  0
  2  4  1  0  0  0  0
  4  5  1  0  0  0  0
  5  6  2  0  0  0  0
  5  7  1  0  0  0  0
  8  7  2  0  0  0  0
  9  8  1  0  0  0  0
 10  9  2  0  0  0  0
 11 10  1  0  0  0  0
 12 11  2  0  0  0  0
  7 12  1  0  0  0  0
  2 13  1  0  0  0  0
 14 13  2  0  0  0  0
 15 14  1  0  0  0  0
 16 15  2  0  0  0  0
 17 16  1  0  0  0  0
 18 17  2  0  0  0  0
 13 18  1  0  0  0  0
M  END
> <ChemID>
201425

> <CAS>
6362-80-7

> <Original_SMILES>
CC(C)(CC(=C)c1ccccc1)c1ccccc1

> <preferred_name>
alpha-(2-Methyl-2-phenylpropyl)styrene

> <dsstox_substance_id>
DTXSID3044253

> <dsstox_compound_id>
DTXCID1024253

> <qc_level>


> <Canonical_QSARr>
CC(C)(CC(=C)C1C=CC=CC=1)C1C=CC=CC=1

> <InChI_Code_QSARr>
InChI=1S/C18H20/c1-15(16-10-6-4-7-11-16)14-18(2,3)17-12-8-5-9-13-17/h4-13H,1,14H2,2-3H3

> <InChI Key_QSARr>
ZOKCNEIWFQCSCM-UHFFFAOYSA-N

> <Salt_Solvent>


> <Salt_Solvent_ID>
0

> <MPID>
101277

> <Tr_1_Tst_0>
0

> <Ready_Biodeg>
0.0

$$$$
Row1243
  Mrv171c012251911052D          

 43 44  0  0  0  0            999 V2000
    0.8560   -2.9355    0.0000 C   0  0  0  0  0  0  0  0  0  0  0  0
    1.5705   -2.5230    0.0000 C   0  0  0  0  0  0  0  0  0  0  0  0
    1.5705   -1.6980    0.0000 C   0  0  0  0  0  0  0  0  0  0  0  0
    0.8560   -1.2855    0.0000 O   0  0  0  0  0  0  0  0  0  0  0  0
    0.1415   -1.6980    0.0000 C   0  0  0  0  0  0  0  0  0  0  0  0
    0.1415   -2.5230    0.0000 C   0  0  0  0  0  0  0  0  0  0  0  0
   -0.5729   -2.9355    0.0000 C   0  0  0  0  0  0  0  0  0  0  0  0
   -1.2874   -2.5230    0.0000 C   0  0  0  0  0  0  0  0  0  0  0  0
   -2.0019   -2.9355    0.0000 C   0  0  0  0  0  0  0  0  0  0  0  0
   -1.5894   -3.6500    0.0000 C   0  0  0  0  0  0  0  0  0  0  0  0
   -2.4144   -2.2211    0.0000 C   0  0  0  0  0  0  0  0  0  0  0  0
   -2.7163   -3.3480    0.0000 C   0  0  0  0  0  0  0  0  0  0  0  0
   -2.7163   -4.1730    0.0000 C   0  0  0  0  0  0  0  0  0  0  0  0
   -1.2874   -1.6980    0.0000 C   0  0  0  0  0  0  0  0  0  0  0  0
   -0.5729   -1.2855    0.0000 C   0  0  0  0  0  0  0  0  0  0  0  0
   -0.5729   -0.4605    0.0000 C   0  0  0  0  0  0  0  0  0  0  0  0
    0.2521   -0.4605    0.0000 C   0  0  0  0  0  0  0  0  0  0  0  0
   -0.5729    0.3645    0.0000 C   0  0  0  0  0  0  0  0  0  0  0  0
   -1.3979   -0.4605    0.0000 C   0  0  0  0  0  0  0  0  0  0  0  0
   -1.8104    0.2539    0.0000 C   0  0  0  0  0  0  0  0  0  0  0  0
    2.2850   -1.2855    0.0000 C   0  0  0  0  0  0  0  0  0  0  0  0
    2.2850   -0.4605    0.0000 O   0  0  0  0  0  0  0  0  0  0  0  0
    2.9994   -1.6980    0.0000 N   0  0  0  0  0  0  0  0  0  0  0  0
    3.7139   -1.2855    0.0000 C   0  0  0  0  0  0  0  0  0  0  0  0
    4.4284   -1.6980    0.0000 C   0  0  0  0  0  0  0  0  0  0  0  0
    5.1428   -1.2855    0.0000 C   0  0  0  0  0  0  0  0  0  0  0  0
    5.1428   -0.4605    0.0000 C   0  0  0  0  0  0  0  0  0  0  0  0
    5.8573   -0.0480    0.0000 N   0  0  0  0  0  0  0  0  0  0  0  0
    6.5718   -0.4605    0.0000 C   0  0  0  0  0  0  0  0  0  0  0  0
    6.5718   -1.2855    0.0000 O   0  0  0  0  0  0  0  0  0  0  0  0
    7.2862   -0.0480    0.0000 C   0  0  0  0  0  0  0  0  0  0  0  0
    7.6987   -0.7625    0.0000 F   0  0  0  0  0  0  0  0  0  0  0  0
    6.8737    0.6664    0.0000 F   0  0  0  0  0  0  0  0  0  0  0  0
    8.0007    0.3645    0.0000 C   0  0  0  0  0  0  0  0  0  0  0  0
    8.4132   -0.3500    0.0000 F   0  0  0  0  0  0  0  0  0  0  0  0
    7.5882    1.0789    0.0000 F   0  0  0  0  0  0  0  0  0  0  0  0
    8.7152    0.7770    0.0000 C   0  0  0  0  0  0  0  0  0  0  0  0
    9.4297    1.1895    0.0000 F   0  0  0  0  0  0  0  0  0  0  0  0
    9.1277    0.0625    0.0000 F   0  0  0  0  0  0  0  0  0  0  0  0
    8.3027    1.4914    0.0000 F   0  0  0  0  0  0  0  0  0  0  0  0
    4.4284   -0.0480    0.0000 C   0  0  0  0  0  0  0  0  0  0  0  0
    4.4284    0.7770    0.0000 O   0  0  0  0  0  0  0  0  0  0  0  0
    3.7139   -0.4605    0.0000 C   0  0  0  0  0  0  0  0  0  0  0  0
  1  2  1  0  0  0  0
  2  3  1  0  0  0  0
  3  4  1  0  0  0  0
  4  5  1  0  0  0  0
  6  5  2  0  0  0  0
  7  6  1  0  0  0  0
  8  7  2  0  0  0  0
  8  9  1  0  0  0  0
  9 10  1  0  0  0  0
  9 11  1  0  0  0  0
  9 12  1  0  0  0  0
 12 13  1  0  0  0  0
 14  8  1  0  0  0  0
 15 14  2  0  0  0  0
  5 15  1  0  0  0  0
 15 16  1  0  0  0  0
 16 17  1  0  0  0  0
 16 18  1  0  0  0  0
 16 19  1  0  0  0  0
 19 20  1  0  0  0  0
  3 21  1  0  0  0  0
 21 22  2  0  0  0  0
 21 23  1  0  0  0  0
 23 24  1  0  0  0  0
 25 24  2  0  0  0  0
 26 25  1  0  0  0  0
 27 26  2  0  0  0  0
 27 28  1  0  0  0  0
 28 29  1  0  0  0  0
 29 30  2  0  0  0  0
 29 31  1  0  0  0  0
 31 32  1  0  0  0  0
 31 33  1  0  0  0  0
 31 34  1  0  0  0  0
 34 35  1  0  0  0  0
 34 36  1  0  0  0  0
 34 37  1  0  0  0  0
 37 38  1  0  0  0  0
 37 39  1  0  0  0  0
 37 40  1  0  0  0  0
 41 27  1  0  0  0  0
 41 42  1  0  0  0  0
 43 41  2  0  0  0  0
 24 43  1  0  0  0  0
M  END
> <ChemID>
201426

> <CAS>
346-10-1

> <Original_SMILES>
CC(C)(CC)c1cc(c(cc1)OC(CC)C(=O)Nc1cc(O)c(cc1)NC(=O)C(F)(F)C(F)(F)C(F)(F)F)C(C)(C)CC

> <preferred_name>


> <dsstox_substance_id>


> <dsstox_compound_id>


> <qc_level>


> <Canonical_QSARr>
CC(C)(CC)C1C=C(C(=CC=1)OC(CC)C(=O)NC1C=C(O)C(=CC=1)NC(=O)C(F)(F)C(F)(F)C(F)(F)F)C(C)(C)CC

> <InChI_Code_QSARr>
InChI=1S/C30H37F7N2O4/c1-8-22(43-23-14-11-17(26(4,5)9-2)15-19(23)27(6,7)10-3)24(41)38-18-12-13-20(21(40)16-18)39-25(42)28(31,32)29(33,34)30(35,36)37/h11-16,22,40H,8-10H2,1-7H3,(H,38,41)(H,39,42)

> <InChI Key_QSARr>
GJVFPXBDZTWODC-UHFFFAOYSA-N

> <Salt_Solvent>


> <Salt_Solvent_ID>
0

> <MPID>
101278

> <Tr_1_Tst_0>
1

> <Ready_Biodeg>
0.0

$$$$
Row1244
  Mrv171c012251911052D          

 17 17  0  0  0  0            999 V2000
    2.5593   -2.9036    0.0000 C   0  0  0  0  0  0  0  0  0  0  0  0
    1.8449   -2.4911    0.0000 C   0  0  0  0  0  0  0  0  0  0  0  0
    1.8449   -1.6661    0.0000 C   0  0  0  0  0  0  0  0  0  0  0  0
    2.6699   -1.6661    0.0000 C   0  0  0  0  0  0  0  0  0  0  0  0
    1.0199   -1.6661    0.0000 C   0  0  0  0  0  0  0  0  0  0  0  0
    1.8449   -0.8411    0.0000 C   0  0  0  0  0  0  0  0  0  0  0  0
    2.5593   -0.4286    0.0000 C   0  0  0  0  0  0  0  0  0  0  0  0
    2.5593    0.3964    0.0000 C   0  0  0  0  0  0  0  0  0  0  0  0
    1.8449    0.8089    0.0000 C   0  0  0  0  0  0  0  0  0  0  0  0
    1.8449    1.6339    0.0000 O   0  0  0  0  0  0  0  0  0  0  0  0
    1.1304    0.3964    0.0000 C   0  0  0  0  0  0  0  0  0  0  0  0
    0.4159    0.8089    0.0000 C   0  0  0  0  0  0  0  0  0  0  0  0
    0.8284    1.5234    0.0000 C   0  0  0  0  0  0  0  0  0  0  0  0
    0.0034    0.0944    0.0000 C   0  0  0  0  0  0  0  0  0  0  0  0
   -0.2985    1.2214    0.0000 C   0  0  0  0  0  0  0  0  0  0  0  0
   -1.0130    0.8089    0.0000 C   0  0  0  0  0  0  0  0  0  0  0  0
    1.1304   -0.4286    0.0000 C   0  0  0  0  0  0  0  0  0  0  0  0
  1  2  1  0  0  0  0
  2  3  1  0  0  0  0
  3  4  1  0  0  0  0
  3  5  1  0  0  0  0
  3  6  1  0  0  0  0
  7  6  2  0  0  0  0
  8  7  1  0  0  0  0
  9  8  2  0  0  0  0
  9 10  1  0  0  0  0
 11  9  1  0  0  0  0
 11 12  1  0  0  0  0
 12 13  1  0  0  0  0
 12 14  1  0  0  0  0
 12 15  1  0  0  0  0
 15 16  1  0  0  0  0
 17 11  2  0  0  0  0
  6 17  1  0  0  0  0
M  END
> <ChemID>
201427

> <CAS>
120-95-6

> <Original_SMILES>
CC(C)(CC)c1cc(ccc1O)C(C)(C)CC

> <preferred_name>
2,4-Bis(2-methylbutan-2-yl)phenol

> <dsstox_substance_id>
DTXSID9026974

> <dsstox_compound_id>
DTXCID106974

> <qc_level>


> <Canonical_QSARr>
CC(C)(CC)C1=CC(=CC=C1O)C(C)(C)CC

> <InChI_Code_QSARr>
InChI=1S/C16H26O/c1-7-15(3,4)12-9-10-14(17)13(11-12)16(5,6)8-2/h9-11,17H,7-8H2,1-6H3

> <InChI Key_QSARr>
WMVJWKURWRGJCI-UHFFFAOYSA-N

> <Salt_Solvent>


> <Salt_Solvent_ID>
0

> <MPID>
101279

> <Tr_1_Tst_0>
1

> <Ready_Biodeg>
0.0

$$$$
Row1245
  Mrv171c012251911052D          

 14 13  0  0  0  0            999 V2000
    2.8059    0.5446    0.0000 C   0  0  0  0  0  0  0  0  0  0  0  0
    2.8059   -0.2804    0.0000 C   0  0  0  0  0  0  0  0  0  0  0  0
    2.8059   -1.1054    0.0000 C   0  0  0  0  0  0  0  0  0  0  0  0
    3.6309   -0.2804    0.0000 C   0  0  0  0  0  0  0  0  0  0  0  0
    4.0434   -0.9949    0.0000 O   0  0  0  0  0  0  0  0  0  0  0  0
    1.9809   -0.2804    0.0000 C   0  0  0  0  0  0  0  0  0  0  0  0
    1.5684    0.4341    0.0000 O   0  0  0  0  0  0  0  0  0  0  0  0
    0.7434    0.4341    0.0000 C   0  0  0  0  0  0  0  0  0  0  0  0
    0.3309   -0.2804    0.0000 O   0  0  0  0  0  0  0  0  0  0  0  0
    0.3309    1.1485    0.0000 C   0  0  0  0  0  0  0  0  0  0  0  0
    1.0454    1.5610    0.0000 C   0  0  0  0  0  0  0  0  0  0  0  0
   -0.3836    0.7360    0.0000 C   0  0  0  0  0  0  0  0  0  0  0  0
   -0.0816    1.8630    0.0000 C   0  0  0  0  0  0  0  0  0  0  0  0
   -0.9066    1.8630    0.0000 O   0  0  0  0  0  0  0  0  0  0  0  0
  1  2  1  0  0  0  0
  2  3  1  0  0  0  0
  2  4  1  0  0  0  0
  4  5  1  0  0  0  0
  2  6  1  0  0  0  0
  6  7  1  0  0  0  0
  7  8  1  0  0  0  0
  8  9  2  0  0  0  0
  8 10  1  0  0  0  0
 10 11  1  0  0  0  0
 10 12  1  0  0  0  0
 10 13  1  0  0  0  0
 13 14  1  0  0  0  0
M  END
> <ChemID>
201428

> <CAS>
1115-20-4

> <Original_SMILES>
CC(C)(CO)C(=O)OCC(C)(C)CO

> <preferred_name>
3-Hydroxy-2,2-dimethylpropyl 3-hydroxy-2,2-dimethylpropanoate

> <dsstox_substance_id>
DTXSID4027361

> <dsstox_compound_id>
DTXCID507361

> <qc_level>


> <Canonical_QSARr>
CC(C)(CO)C(=O)OCC(C)(C)CO

> <InChI_Code_QSARr>
InChI=1S/C10H20O4/c1-9(2,5-11)7-14-8(13)10(3,4)6-12/h11-12H,5-7H2,1-4H3

> <InChI Key_QSARr>
SZCWBURCISJFEZ-UHFFFAOYSA-N

> <Salt_Solvent>


> <Salt_Solvent_ID>
0

> <MPID>
101280

> <Tr_1_Tst_0>
1

> <Ready_Biodeg>
0.0

$$$$
Row1246
  Mrv171c012251911052D          

 11 11  0  0  0  0            999 V2000
   -0.2880    0.2350    0.0000 C   0  0  0  0  0  0  0  0  0  0  0  0
    0.5370    0.2350    0.0000 C   0  0  0  0  0  0  0  0  0  0  0  0
    1.3620    0.2350    0.0000 C   0  0  0  0  0  0  0  0  0  0  0  0
    0.5370    1.0600    0.0000 O   0  0  0  0  0  0  0  0  0  0  0  0
    1.2515    1.4725    0.0000 O   0  0  0  0  0  0  0  0  0  0  0  0
    0.5370   -0.5900    0.0000 C   0  0  0  0  0  0  0  0  0  0  0  0
   -0.1774   -1.0025    0.0000 C   0  0  0  0  0  0  0  0  0  0  0  0
   -0.1774   -1.8275    0.0000 C   0  0  0  0  0  0  0  0  0  0  0  0
    0.5370   -2.2400    0.0000 C   0  0  0  0  0  0  0  0  0  0  0  0
    1.2515   -1.8275    0.0000 C   0  0  0  0  0  0  0  0  0  0  0  0
    1.2515   -1.0025    0.0000 C   0  0  0  0  0  0  0  0  0  0  0  0
  1  2  1  0  0  0  0
  2  3  1  0  0  0  0
  2  4  1  0  0  0  0
  4  5  1  0  0  0  0
  2  6  1  0  0  0  0
  7  6  2  0  0  0  0
  8  7  1  0  0  0  0
  9  8  2  0  0  0  0
 10  9  1  0  0  0  0
 11 10  2  0  0  0  0
  6 11  1  0  0  0  0
M  END
> <ChemID>
201432

> <CAS>
80-15-9

> <Original_SMILES>
CC(C)(OO)c1ccccc1

> <preferred_name>
Cumene hydroperoxide

> <dsstox_substance_id>
DTXSID3024869

> <dsstox_compound_id>
DTXCID404869

> <qc_level>


> <Canonical_QSARr>
CC(C)(OO)C1C=CC=CC=1

> <InChI_Code_QSARr>
InChI=1S/C9H12O2/c1-9(2,11-10)8-6-4-3-5-7-8/h3-7,10H,1-2H3

> <InChI Key_QSARr>
YQHLDYVWEZKEOX-UHFFFAOYSA-N

> <Salt_Solvent>


> <Salt_Solvent_ID>
0

> <MPID>
101281

> <Tr_1_Tst_0>
1

> <Ready_Biodeg>
0.0

$$$$
Row1247
  Mrv171c012251911052D          

 31 32  0  0  0  0            999 V2000
    0.2956   -0.1787    0.0000 C   0  0  0  0  0  0  0  0  0  0  0  0
   -0.1169    0.5358    0.0000 C   0  0  0  0  0  0  0  0  0  0  0  0
   -0.5294    1.2503    0.0000 C   0  0  0  0  0  0  0  0  0  0  0  0
   -0.8314    0.1233    0.0000 C   0  0  0  0  0  0  0  0  0  0  0  0
   -1.5459    0.5358    0.0000 C   0  0  0  0  0  0  0  0  0  0  0  0
   -2.2604    0.1233    0.0000 C   0  0  0  0  0  0  0  0  0  0  0  0
   -2.9748    0.5358    0.0000 Br  0  0  0  0  0  0  0  0  0  0  0  0
   -2.2604   -0.7017    0.0000 C   0  0  0  0  0  0  0  0  0  0  0  0
   -2.9748   -1.1142    0.0000 O   0  0  0  0  0  0  0  0  0  0  0  0
   -2.9748   -1.9392    0.0000 C   0  0  0  0  0  0  0  0  0  0  0  0
   -3.6893   -2.3517    0.0000 C   0  0  0  0  0  0  0  0  0  0  0  0
   -4.4038   -1.9392    0.0000 Br  0  0  0  0  0  0  0  0  0  0  0  0
   -3.6893   -3.1767    0.0000 C   0  0  0  0  0  0  0  0  0  0  0  0
   -4.4038   -3.5892    0.0000 Br  0  0  0  0  0  0  0  0  0  0  0  0
   -1.5459   -1.1142    0.0000 C   0  0  0  0  0  0  0  0  0  0  0  0
   -1.5459   -1.9392    0.0000 Br  0  0  0  0  0  0  0  0  0  0  0  0
   -0.8314   -0.7017    0.0000 C   0  0  0  0  0  0  0  0  0  0  0  0
    0.5975    0.9483    0.0000 C   0  0  0  0  0  0  0  0  0  0  0  0
    1.3120    0.5358    0.0000 C   0  0  0  0  0  0  0  0  0  0  0  0
    2.0265    0.9483    0.0000 C   0  0  0  0  0  0  0  0  0  0  0  0
    2.7409    0.5358    0.0000 Br  0  0  0  0  0  0  0  0  0  0  0  0
    2.0265    1.7733    0.0000 C   0  0  0  0  0  0  0  0  0  0  0  0
    2.7409    2.1858    0.0000 O   0  0  0  0  0  0  0  0  0  0  0  0
    3.4554    1.7733    0.0000 C   0  0  0  0  0  0  0  0  0  0  0  0
    4.1699    2.1858    0.0000 C   0  0  0  0  0  0  0  0  0  0  0  0
    4.1699    3.0108    0.0000 Br  0  0  0  0  0  0  0  0  0  0  0  0
    4.8844    1.7733    0.0000 C   0  0  0  0  0  0  0  0  0  0  0  0
    5.5988    2.1858    0.0000 Br  0  0  0  0  0  0  0  0  0  0  0  0
    1.3120    2.1858    0.0000 C   0  0  0  0  0  0  0  0  0  0  0  0
    1.3120    3.0108    0.0000 Br  0  0  0  0  0  0  0  0  0  0  0  0
    0.5975    1.7733    0.0000 C   0  0  0  0  0  0  0  0  0  0  0  0
  1  2  1  0  0  0  0
  2  3  1  0  0  0  0
  2  4  1  0  0  0  0
  5  4  2  0  0  0  0
  6  5  1  0  0  0  0
  6  7  1  0  0  0  0
  8  6  2  0  0  0  0
  8  9  1  0  0  0  0
  9 10  1  0  0  0  0
 10 11  1  0  0  0  0
 11 12  1  0  0  0  0
 11 13  1  0  0  0  0
 13 14  1  0  0  0  0
 15  8  1  0  0  0  0
 15 16  1  0  0  0  0
 17 15  2  0  0  0  0
  4 17  1  0  0  0  0
  2 18  1  0  0  0  0
 19 18  2  0  0  0  0
 20 19  1  0  0  0  0
 20 21  1  0  0  0  0
 22 20  2  0  0  0  0
 22 23  1  0  0  0  0
 23 24  1  0  0  0  0
 24 25  1  0  0  0  0
 25 26  1  0  0  0  0
 25 27  1  0  0  0  0
 27 28  1  0  0  0  0
 29 22  1  0  0  0  0
 29 30  1  0  0  0  0
 31 29  2  0  0  0  0
 18 31  1  0  0  0  0
M  END
> <ChemID>
201435

> <CAS>
21850-44-2

> <Original_SMILES>
CC(C)(c1cc(Br)c(OCC(Br)CBr)c(Br)c1)c1cc(Br)c(OCC(Br)CBr)c(Br)c1

> <preferred_name>
Tetrabromobisphenol A-bis(2,3-dibromopropyl ether)

> <dsstox_substance_id>
DTXSID3032129

> <dsstox_compound_id>
DTXCID1012129

> <qc_level>


> <Canonical_QSARr>
CC(C)(C1=CC(Br)=C(OCC(Br)CBr)C(Br)=C1)C1=CC(Br)=C(OCC(Br)CBr)C(Br)=C1

> <InChI_Code_QSARr>
InChI=1S/C21H20Br8O2/c1-21(2,11-3-15(26)19(16(27)4-11)30-9-13(24)7-22)12-5-17(28)20(18(29)6-12)31-10-14(25)8-23/h3-6,13-14H,7-10H2,1-2H3

> <InChI Key_QSARr>
LXIZRZRTWSDLKK-UHFFFAOYSA-N

> <Salt_Solvent>


> <Salt_Solvent_ID>
0

> <MPID>
101282

> <Tr_1_Tst_0>
1

> <Ready_Biodeg>
0.0

$$$$
Row1248
  Mrv171c012251911052D          

 31 34  0  0  0  0            999 V2000
   -0.8523   -3.0042    0.0000 C   0  0  0  0  0  0  0  0  0  0  0  0
   -1.6773   -3.0042    0.0000 C   0  0  0  0  0  0  0  0  0  0  0  0
   -2.5023   -3.0042    0.0000 C   0  0  0  0  0  0  0  0  0  0  0  0
   -1.6773   -3.8292    0.0000 C   0  0  0  0  0  0  0  0  0  0  0  0
   -2.3918   -4.2417    0.0000 C   0  0  0  0  0  0  0  0  0  0  0  0
   -2.3918   -5.0667    0.0000 C   0  0  0  0  0  0  0  0  0  0  0  0
   -1.6773   -5.4792    0.0000 C   0  0  0  0  0  0  0  0  0  0  0  0
   -0.9629   -5.0667    0.0000 C   0  0  0  0  0  0  0  0  0  0  0  0
   -0.9629   -4.2417    0.0000 C   0  0  0  0  0  0  0  0  0  0  0  0
   -1.6773   -2.1792    0.0000 C   0  0  0  0  0  0  0  0  0  0  0  0
   -0.9629   -1.7667    0.0000 C   0  0  0  0  0  0  0  0  0  0  0  0
   -0.9629   -0.9417    0.0000 C   0  0  0  0  0  0  0  0  0  0  0  0
   -1.6773   -0.5292    0.0000 C   0  0  0  0  0  0  0  0  0  0  0  0
   -1.6773    0.2958    0.0000 N   0  0  0  0  0  0  0  0  0  0  0  0
   -2.3918    0.7083    0.0000 C   0  0  0  0  0  0  0  0  0  0  0  0
   -2.3918    1.5333    0.0000 C   0  0  0  0  0  0  0  0  0  0  0  0
   -3.1063    1.9458    0.0000 C   0  0  0  0  0  0  0  0  0  0  0  0
   -3.8207    1.5333    0.0000 C   0  0  0  0  0  0  0  0  0  0  0  0
   -4.5352    1.9458    0.0000 C   0  0  0  0  0  0  0  0  0  0  0  0
   -4.1227    2.6602    0.0000 C   0  0  0  0  0  0  0  0  0  0  0  0
   -4.9477    1.2313    0.0000 C   0  0  0  0  0  0  0  0  0  0  0  0
   -5.2497    2.3583    0.0000 C   0  0  0  0  0  0  0  0  0  0  0  0
   -5.2497    3.1833    0.0000 C   0  0  0  0  0  0  0  0  0  0  0  0
   -5.9642    3.5958    0.0000 C   0  0  0  0  0  0  0  0  0  0  0  0
   -6.6786    3.1833    0.0000 C   0  0  0  0  0  0  0  0  0  0  0  0
   -6.6786    2.3583    0.0000 C   0  0  0  0  0  0  0  0  0  0  0  0
   -5.9642    1.9458    0.0000 C   0  0  0  0  0  0  0  0  0  0  0  0
   -3.8207    0.7083    0.0000 C   0  0  0  0  0  0  0  0  0  0  0  0
   -3.1063    0.2958    0.0000 C   0  0  0  0  0  0  0  0  0  0  0  0
   -2.3918   -0.9417    0.0000 C   0  0  0  0  0  0  0  0  0  0  0  0
   -2.3918   -1.7667    0.0000 C   0  0  0  0  0  0  0  0  0  0  0  0
  1  2  1  0  0  0  0
  2  3  1  0  0  0  0
  2  4  1  0  0  0  0
  5  4  2  0  0  0  0
  6  5  1  0  0  0  0
  7  6  2  0  0  0  0
  8  7  1  0  0  0  0
  9  8  2  0  0  0  0
  4  9  1  0  0  0  0
  2 10  1  0  0  0  0
 11 10  2  0  0  0  0
 12 11  1  0  0  0  0
 13 12  2  0  0  0  0
 13 14  1  0  0  0  0
 14 15  1  0  0  0  0
 16 15  2  0  0  0  0
 17 16  1  0  0  0  0
 18 17  2  0  0  0  0
 18 19  1  0  0  0  0
 19 20  1  0  0  0  0
 19 21  1  0  0  0  0
 19 22  1  0  0  0  0
 23 22  2  0  0  0  0
 24 23  1  0  0  0  0
 25 24  2  0  0  0  0
 26 25  1  0  0  0  0
 27 26  2  0  0  0  0
 22 27  1  0  0  0  0
 28 18  1  0  0  0  0
 29 28  2  0  0  0  0
 15 29  1  0  0  0  0
 30 13  1  0  0  0  0
 31 30  2  0  0  0  0
 10 31  1  0  0  0  0
M  END
> <ChemID>
201437

> <CAS>
10081-67-1

> <Original_SMILES>
CC(C)(c1ccc(cc1)Nc1ccc(cc1)C(C)(C)c1ccccc1)c1ccccc1

> <preferred_name>
4-(2-Phenylpropan-2-yl)-N-[4-(2-phenylpropan-2-yl)phenyl]aniline

> <dsstox_substance_id>
DTXSID0027721

> <dsstox_compound_id>
DTXCID107721

> <qc_level>


> <Canonical_QSARr>
CC(C)(C1C=CC(=CC=1)NC1C=CC(=CC=1)C(C)(C)C1C=CC=CC=1)C1C=CC=CC=1

> <InChI_Code_QSARr>
InChI=1S/C30H31N/c1-29(2,23-11-7-5-8-12-23)25-15-19-27(20-16-25)31-28-21-17-26(18-22-28)30(3,4)24-13-9-6-10-14-24/h5-22,31H,1-4H3

> <InChI Key_QSARr>
UJAWGGOCYUPCPS-UHFFFAOYSA-N

> <Salt_Solvent>


> <Salt_Solvent_ID>
0

> <MPID>
101283

> <Tr_1_Tst_0>
0

> <Ready_Biodeg>
0.0

$$$$
Row1249
  Mrv171c012251911052D          

 23 24  0  0  0  0            999 V2000
   -0.8158    0.1763    0.0000 C   0  0  0  0  0  0  0  0  0  0  0  0
    0.0092    0.1763    0.0000 C   0  0  0  0  0  0  0  0  0  0  0  0
    0.8342    0.1763    0.0000 C   0  0  0  0  0  0  0  0  0  0  0  0
    0.0092    1.0013    0.0000 C   0  0  0  0  0  0  0  0  0  0  0  0
    0.7237    1.4138    0.0000 C   0  0  0  0  0  0  0  0  0  0  0  0
    0.7237    2.2388    0.0000 C   0  0  0  0  0  0  0  0  0  0  0  0
    0.0092    2.6513    0.0000 C   0  0  0  0  0  0  0  0  0  0  0  0
    0.0092    3.4763    0.0000 O   0  0  0  0  0  0  0  0  0  0  0  0
   -0.7052    3.8888    0.0000 C   0  0  0  0  0  0  0  0  0  0  0  0
   -0.7052    4.7138    0.0000 C   0  0  0  0  0  0  0  0  0  0  0  0
   -1.4197    5.1263    0.0000 O   0  0  0  0  0  0  0  0  0  0  0  0
   -0.7052    2.2388    0.0000 C   0  0  0  0  0  0  0  0  0  0  0  0
   -0.7052    1.4138    0.0000 C   0  0  0  0  0  0  0  0  0  0  0  0
    0.0092   -0.6487    0.0000 C   0  0  0  0  0  0  0  0  0  0  0  0
   -0.7052   -1.0612    0.0000 C   0  0  0  0  0  0  0  0  0  0  0  0
   -0.7052   -1.8862    0.0000 C   0  0  0  0  0  0  0  0  0  0  0  0
    0.0092   -2.2987    0.0000 C   0  0  0  0  0  0  0  0  0  0  0  0
    0.0092   -3.1237    0.0000 O   0  0  0  0  0  0  0  0  0  0  0  0
    0.7237   -3.5362    0.0000 C   0  0  0  0  0  0  0  0  0  0  0  0
    0.7237   -4.3612    0.0000 C   0  0  0  0  0  0  0  0  0  0  0  0
    1.4382   -4.7737    0.0000 O   0  0  0  0  0  0  0  0  0  0  0  0
    0.7237   -1.8862    0.0000 C   0  0  0  0  0  0  0  0  0  0  0  0
    0.7237   -1.0612    0.0000 C   0  0  0  0  0  0  0  0  0  0  0  0
  1  2  1  0  0  0  0
  2  3  1  0  0  0  0
  2  4  1  0  0  0  0
  5  4  2  0  0  0  0
  6  5  1  0  0  0  0
  7  6  2  0  0  0  0
  7  8  1  0  0  0  0
  8  9  1  0  0  0  0
  9 10  1  0  0  0  0
 10 11  1  0  0  0  0
 12  7  1  0  0  0  0
 13 12  2  0  0  0  0
  4 13  1  0  0  0  0
  2 14  1  0  0  0  0
 15 14  2  0  0  0  0
 16 15  1  0  0  0  0
 17 16  2  0  0  0  0
 17 18  1  0  0  0  0
 18 19  1  0  0  0  0
 19 20  1  0  0  0  0
 20 21  1  0  0  0  0
 22 17  1  0  0  0  0
 23 22  2  0  0  0  0
 14 23  1  0  0  0  0
M  END
> <ChemID>
201438

> <CAS>
901-44-0

> <Original_SMILES>
CC(C)(c1ccc(cc1)OCCO)c1ccc(cc1)OCCO

> <preferred_name>
Ethanol, 2,2'-[(1-methylethylidene)bis(4,1-phenyleneoxy)]bis-

> <dsstox_substance_id>
DTXSID6029204

> <dsstox_compound_id>
DTXCID909204

> <qc_level>


> <Canonical_QSARr>
CC(C)(C1C=CC(=CC=1)OCCO)C1C=CC(=CC=1)OCCO

> <InChI_Code_QSARr>
InChI=1S/C19H24O4/c1-19(2,15-3-7-17(8-4-15)22-13-11-20)16-5-9-18(10-6-16)23-14-12-21/h3-10,20-21H,11-14H2,1-2H3

> <InChI Key_QSARr>
UUAGPGQUHZVJBQ-UHFFFAOYSA-N

> <Salt_Solvent>


> <Salt_Solvent_ID>
0

> <MPID>
101284

> <Tr_1_Tst_0>
1

> <Ready_Biodeg>
0.0

$$$$
Row1250
  Mrv171c012251911052D          

 16 17  0  0  0  0            999 V2000
    0.6101   -0.2086    0.0000 C   0  0  0  0  0  0  0  0  0  0  0  0
   -0.2149   -0.2086    0.0000 C   0  0  0  0  0  0  0  0  0  0  0  0
   -1.0399   -0.2086    0.0000 C   0  0  0  0  0  0  0  0  0  0  0  0
   -0.2149   -1.0336    0.0000 C   0  0  0  0  0  0  0  0  0  0  0  0
   -0.9294   -1.4461    0.0000 C   0  0  0  0  0  0  0  0  0  0  0  0
   -0.9294   -2.2711    0.0000 C   0  0  0  0  0  0  0  0  0  0  0  0
   -0.2149   -2.6836    0.0000 C   0  0  0  0  0  0  0  0  0  0  0  0
    0.4995   -2.2711    0.0000 C   0  0  0  0  0  0  0  0  0  0  0  0
    0.4995   -1.4461    0.0000 C   0  0  0  0  0  0  0  0  0  0  0  0
   -0.2149    0.6164    0.0000 C   0  0  0  0  0  0  0  0  0  0  0  0
    0.4995    1.0289    0.0000 C   0  0  0  0  0  0  0  0  0  0  0  0
    0.4995    1.8539    0.0000 C   0  0  0  0  0  0  0  0  0  0  0  0
   -0.2149    2.2664    0.0000 C   0  0  0  0  0  0  0  0  0  0  0  0
   -0.2149    3.0914    0.0000 O   0  0  0  0  0  0  0  0  0  0  0  0
   -0.9294    1.8539    0.0000 C   0  0  0  0  0  0  0  0  0  0  0  0
   -0.9294    1.0289    0.0000 C   0  0  0  0  0  0  0  0  0  0  0  0
  1  2  1  0  0  0  0
  2  3  1  0  0  0  0
  2  4  1  0  0  0  0
  5  4  2  0  0  0  0
  6  5  1  0  0  0  0
  7  6  2  0  0  0  0
  8  7  1  0  0  0  0
  9  8  2  0  0  0  0
  4  9  1  0  0  0  0
  2 10  1  0  0  0  0
 11 10  2  0  0  0  0
 12 11  1  0  0  0  0
 13 12  2  0  0  0  0
 13 14  1  0  0  0  0
 15 13  1  0  0  0  0
 16 15  2  0  0  0  0
 10 16  1  0  0  0  0
M  END
> <ChemID>
201439

> <CAS>
599-64-4

> <Original_SMILES>
CC(C)(c1ccccc1)c1ccc(O)cc1

> <preferred_name>
4-Cumylphenol

> <dsstox_substance_id>
DTXSID3022536

> <dsstox_compound_id>
DTXCID502536

> <qc_level>


> <Canonical_QSARr>
CC(C)(C1C=CC=CC=1)C1C=CC(O)=CC=1

> <InChI_Code_QSARr>
InChI=1S/C15H16O/c1-15(2,12-6-4-3-5-7-12)13-8-10-14(16)11-9-13/h3-11,16H,1-2H3

> <InChI Key_QSARr>
QBDSZLJBMIMQRS-UHFFFAOYSA-N

> <Salt_Solvent>


> <Salt_Solvent_ID>
0

> <MPID>
101285

> <Tr_1_Tst_0>
1

> <Ready_Biodeg>
0.0

$$$$
Row1251
  Mrv171c012251911052D          

 10 10  0  0  0  0            999 V2000
    0.3020   -1.6500    0.0000 C   0  0  0  0  0  0  0  0  0  0  0  0
   -0.4125   -1.2375    0.0000 C   0  0  0  0  0  0  0  0  0  0  0  0
   -1.1270   -1.6500    0.0000 C   0  0  0  0  0  0  0  0  0  0  0  0
   -0.4125   -0.4125    0.0000 C   0  0  0  0  0  0  0  0  0  0  0  0
    0.3020    0.0000    0.0000 C   0  0  0  0  0  0  0  0  0  0  0  0
    0.3020    0.8250    0.0000 C   0  0  0  0  0  0  0  0  0  0  0  0
   -0.4125    1.2375    0.0000 C   0  0  0  0  0  0  0  0  0  0  0  0
   -0.4125    2.0625    0.0000 C   0  0  0  0  0  0  0  0  0  0  0  0
   -1.1270    0.8250    0.0000 C   0  0  0  0  0  0  0  0  0  0  0  0
   -1.1270    0.0000    0.0000 C   0  0  0  0  0  0  0  0  0  0  0  0
  1  2  1  0  0  0  0
  2  3  1  0  0  0  0
  2  4  2  0  0  0  0
  5  4  1  0  0  0  0
  6  5  1  0  0  0  0
  7  6  1  0  0  0  0
  7  8  1  0  0  0  0
  9  7  2  0  0  0  0
 10  9  1  0  0  0  0
  4 10  1  0  0  0  0
M  END
> <ChemID>
201440

> <CAS>
586-62-9

> <Original_SMILES>
CC(C)=C1CC=C(C)CC1

> <preferred_name>
Terpinolene

> <dsstox_substance_id>
DTXSID0027222

> <dsstox_compound_id>
DTXCID507222

> <qc_level>


> <Canonical_QSARr>
CC(C)=C1CC=C(C)CC1

> <InChI_Code_QSARr>
InChI=1S/C10H16/c1-8(2)10-6-4-9(3)5-7-10/h4H,5-7H2,1-3H3

> <InChI Key_QSARr>
MOYAFQVGZZPNRA-UHFFFAOYSA-N

> <Salt_Solvent>


> <Salt_Solvent_ID>
0

> <MPID>
101286

> <Tr_1_Tst_0>
1

> <Ready_Biodeg>
1.0

$$$$
Row1252
  Mrv171c012251911052D          

  7  6  0  0  0  0            999 V2000
    1.5911    1.5310    0.0000 C   0  0  0  0  0  0  0  0  0  0  0  0
    1.1786    0.8166    0.0000 C   0  0  0  0  0  0  0  0  0  0  0  0
    1.5911    0.1021    0.0000 C   0  0  0  0  0  0  0  0  0  0  0  0
    0.3536    0.8166    0.0000 C   0  0  0  0  0  0  0  0  0  0  0  0
   -0.0589    0.1021    0.0000 C   0  0  0  0  0  0  0  0  0  0  0  0
    0.3536   -0.6124    0.0000 C   0  0  0  0  0  0  0  0  0  0  0  0
   -0.8839    0.1021    0.0000 O   0  0  0  0  0  0  0  0  0  0  0  0
  1  2  1  0  0  0  0
  2  3  1  0  0  0  0
  2  4  2  0  0  0  0
  4  5  1  0  0  0  0
  5  6  1  0  0  0  0
  5  7  2  0  0  0  0
M  END
> <ChemID>
201441

> <CAS>
141-79-7

> <Original_SMILES>
CC(C)=CC(C)=O

> <preferred_name>
4-Methylpent-3-en-2-one

> <dsstox_substance_id>
DTXSID1029170

> <dsstox_compound_id>
DTXCID209170

> <qc_level>


> <Canonical_QSARr>
CC(C)=CC(C)=O

> <InChI_Code_QSARr>
InChI=1S/C6H10O/c1-5(2)4-6(3)7/h4H,1-3H3

> <InChI Key_QSARr>
SHOJXDKTYKFBRD-UHFFFAOYSA-N

> <Salt_Solvent>


> <Salt_Solvent_ID>
0

> <MPID>
101287

> <Tr_1_Tst_0>
0

> <Ready_Biodeg>
1.0

$$$$
Row1253
  Mrv171c012251911052D          

 22 23  0  0  0  0            999 V2000
   -1.4571    2.2935    0.0000 C   0  0  0  0  0  0  0  0  0  0  0  0
   -1.4571    1.4685    0.0000 C   0  0  0  0  0  0  0  0  0  0  0  0
   -2.1716    1.0560    0.0000 C   0  0  0  0  0  0  0  0  0  0  0  0
   -0.7427    1.0560    0.0000 C   0  0  0  0  0  0  0  0  0  0  0  0
   -0.0282    1.4685    0.0000 C   0  0  0  0  0  0  0  0  0  0  0  0
    0.7968    1.4685    0.0000 C   0  0  0  0  0  0  0  0  0  0  0  0
    1.5113    1.0560    0.0000 C   0  0  0  0  0  0  0  0  0  0  0  0
    1.5113    0.2310    0.0000 O   0  0  0  0  0  0  0  0  0  0  0  0
    2.2257    1.4685    0.0000 O   0  0  0  0  0  0  0  0  0  0  0  0
    2.9402    1.0560    0.0000 C   0  0  0  0  0  0  0  0  0  0  0  0
    3.0265    0.2355    0.0000 C   0  0  0  0  0  0  0  0  0  0  0  0
    3.8334    0.0640    0.0000 C   0  0  0  0  0  0  0  0  0  0  0  0
    4.1690   -0.6897    0.0000 O   0  0  0  0  0  0  0  0  0  0  0  0
    4.2459    0.7785    0.0000 C   0  0  0  0  0  0  0  0  0  0  0  0
    5.0664    0.8647    0.0000 C   0  0  0  0  0  0  0  0  0  0  0  0
    5.5513    0.1973    0.0000 C   0  0  0  0  0  0  0  0  0  0  0  0
    6.3718    0.2835    0.0000 C   0  0  0  0  0  0  0  0  0  0  0  0
    3.6939    1.3916    0.0000 C   0  0  0  0  0  0  0  0  0  0  0  0
    3.8654    2.1985    0.0000 C   0  0  0  0  0  0  0  0  0  0  0  0
    0.3843    2.1830    0.0000 C   0  0  0  0  0  0  0  0  0  0  0  0
    0.8575    2.8588    0.0000 C   0  0  0  0  0  0  0  0  0  0  0  0
   -0.0889    2.8588    0.0000 C   0  0  0  0  0  0  0  0  0  0  0  0
  1  2  1  0  0  0  0
  2  3  1  0  0  0  0
  2  4  2  0  0  0  0
  4  5  1  0  0  0  0
  6  5  1  0  0  0  0
  6  7  1  0  0  0  0
  7  8  2  0  0  0  0
  7  9  1  0  0  0  0
  9 10  1  0  0  0  0
 11 10  1  0  0  0  0
 12 11  1  0  0  0  0
 12 13  2  0  0  0  0
 14 12  1  0  0  0  0
 14 15  1  0  0  0  0
 15 16  1  0  0  0  0
 16 17  2  0  0  0  0
 18 14  2  0  0  0  0
 10 18  1  0  0  0  0
 18 19  1  0  0  0  0
 20  6  1  0  0  0  0
  5 20  1  0  0  0  0
 20 21  1  0  0  0  0
 20 22  1  0  0  0  0
M  END
> <ChemID>
201442

> <CAS>
584-79-2

> <Original_SMILES>
CC(C)=CC1C(C(=O)OC2CC(=O)C(CC=C)=C2C)C1(C)C

> <preferred_name>
Allethrin

> <dsstox_substance_id>
DTXSID8035180

> <dsstox_compound_id>
DTXCID6015180

> <qc_level>


> <Canonical_QSARr>
CC(C)=CC1C(C(=O)OC2CC(=O)C(CC=C)=C2C)C1(C)C

> <InChI_Code_QSARr>
InChI=1S/C19H26O3/c1-7-8-13-12(4)16(10-15(13)20)22-18(21)17-14(9-11(2)3)19(17,5)6/h7,9,14,16-17H,1,8,10H2,2-6H3

> <InChI Key_QSARr>
ZCVAOQKBXKSDMS-UHFFFAOYSA-N

> <Salt_Solvent>


> <Salt_Solvent_ID>
0

> <MPID>
101288

> <Tr_1_Tst_0>
1

> <Ready_Biodeg>
0.0

$$$$
Row1254
  Mrv171c012251911052D          

 24 26  0  0  0  0            999 V2000
   -4.5638   -3.6054    0.0000 C   0  0  0  0  0  0  0  0  0  0  0  0
   -3.7388   -3.6054    0.0000 C   0  0  0  0  0  0  0  0  0  0  0  0
   -3.3263   -4.3199    0.0000 C   0  0  0  0  0  0  0  0  0  0  0  0
   -3.3263   -2.8910    0.0000 C   0  0  0  0  0  0  0  0  0  0  0  0
   -3.7388   -2.1765    0.0000 C   0  0  0  0  0  0  0  0  0  0  0  0
   -3.7388   -1.3515    0.0000 C   0  0  0  0  0  0  0  0  0  0  0  0
   -3.3263   -0.6370    0.0000 C   0  0  0  0  0  0  0  0  0  0  0  0
   -3.7388    0.0774    0.0000 O   0  0  0  0  0  0  0  0  0  0  0  0
   -2.5013   -0.6370    0.0000 O   0  0  0  0  0  0  0  0  0  0  0  0
   -2.0888    0.0774    0.0000 C   0  0  0  0  0  0  0  0  0  0  0  0
   -1.2638    0.0774    0.0000 N   0  0  0  0  0  0  0  0  0  0  0  0
   -0.7789   -0.5900    0.0000 C   0  0  0  0  0  0  0  0  0  0  0  0
   -1.0338   -1.3746    0.0000 O   0  0  0  0  0  0  0  0  0  0  0  0
    0.0058   -0.3351    0.0000 C   0  0  0  0  0  0  0  0  0  0  0  0
    0.0058    0.4899    0.0000 C   0  0  0  0  0  0  0  0  0  0  0  0
    0.7202    0.9024    0.0000 C   0  0  0  0  0  0  0  0  0  0  0  0
    1.4347    0.4899    0.0000 C   0  0  0  0  0  0  0  0  0  0  0  0
    1.4347   -0.3351    0.0000 C   0  0  0  0  0  0  0  0  0  0  0  0
    0.7202   -0.7476    0.0000 C   0  0  0  0  0  0  0  0  0  0  0  0
   -0.7789    0.7449    0.0000 C   0  0  0  0  0  0  0  0  0  0  0  0
   -1.0338    1.5295    0.0000 O   0  0  0  0  0  0  0  0  0  0  0  0
   -4.4533   -1.7640    0.0000 C   0  0  0  0  0  0  0  0  0  0  0  0
   -5.1291   -1.2908    0.0000 C   0  0  0  0  0  0  0  0  0  0  0  0
   -5.1291   -2.2372    0.0000 C   0  0  0  0  0  0  0  0  0  0  0  0
  1  2  1  0  0  0  0
  2  3  1  0  0  0  0
  2  4  2  0  0  0  0
  4  5  1  0  0  0  0
  6  5  1  0  0  0  0
  6  7  1  0  0  0  0
  7  8  2  0  0  0  0
  7  9  1  0  0  0  0
  9 10  1  0  0  0  0
 10 11  1  0  0  0  0
 12 11  1  0  0  0  0
 12 13  2  0  0  0  0
 14 12  1  0  0  0  0
 14 15  2  0  0  0  0
 15 16  1  0  0  0  0
 16 17  1  0  0  0  0
 17 18  1  0  0  0  0
 18 19  1  0  0  0  0
 19 14  1  0  0  0  0
 20 15  1  0  0  0  0
 11 20  1  0  0  0  0
 20 21  2  0  0  0  0
 22  6  1  0  0  0  0
  5 22  1  0  0  0  0
 22 23  1  0  0  0  0
 22 24  1  0  0  0  0
M  END
> <ChemID>
201443

> <CAS>
7696-12-0

> <Original_SMILES>
CC(C)=CC1C(C(=O)OCN2C(=O)C3CCCCC=3C2=O)C1(C)C

> <preferred_name>
Tetramethrin

> <dsstox_substance_id>
DTXSID6032649

> <dsstox_compound_id>
DTXCID4012649

> <qc_level>


> <Canonical_QSARr>
CC(C)=CC1C(C(=O)OCN2C(=O)C3CCCCC=3C2=O)C1(C)C

> <InChI_Code_QSARr>
InChI=1S/C19H25NO4/c1-11(2)9-14-15(19(14,3)4)18(23)24-10-20-16(21)12-7-5-6-8-13(12)17(20)22/h9,14-15H,5-8,10H2,1-4H3

> <InChI Key_QSARr>
CXBMCYHAMVGWJQ-UHFFFAOYSA-N

> <Salt_Solvent>


> <Salt_Solvent_ID>
0

> <MPID>
101289

> <Tr_1_Tst_0>
1

> <Ready_Biodeg>
0.0

$$$$
Row1255
  Mrv171c012251911052D          

 11 10  0  0  0  0            999 V2000
    2.3141    0.8946    0.0000 C   0  0  0  0  0  0  0  0  0  0  0  0
    1.9016    1.6090    0.0000 C   0  0  0  0  0  0  0  0  0  0  0  0
    2.3141    2.3235    0.0000 C   0  0  0  0  0  0  0  0  0  0  0  0
    1.0766    1.6090    0.0000 C   0  0  0  0  0  0  0  0  0  0  0  0
    0.6641    0.8946    0.0000 C   0  0  0  0  0  0  0  0  0  0  0  0
    1.0766    0.1801    0.0000 C   0  0  0  0  0  0  0  0  0  0  0  0
    0.6641   -0.5344    0.0000 C   0  0  0  0  0  0  0  0  0  0  0  0
   -0.0504   -0.1219    0.0000 C   0  0  0  0  0  0  0  0  0  0  0  0
    1.3785   -0.9469    0.0000 O   0  0  0  0  0  0  0  0  0  0  0  0
    0.2516   -1.2489    0.0000 C   0  0  0  0  0  0  0  0  0  0  0  0
    0.6641   -1.9633    0.0000 C   0  0  0  0  0  0  0  0  0  0  0  0
  1  2  1  0  0  0  0
  2  3  1  0  0  0  0
  2  4  2  0  0  0  0
  4  5  1  0  0  0  0
  5  6  1  0  0  0  0
  6  7  1  0  0  0  0
  7  8  1  0  0  0  0
  7  9  1  0  0  0  0
  7 10  1  0  0  0  0
 10 11  2  0  0  0  0
M  END
> <ChemID>
201445

> <CAS>
78-70-6

> <Original_SMILES>
CC(C)=CCCC(C)(O)C=C

> <preferred_name>
Linalool

> <dsstox_substance_id>
DTXSID7025502

> <dsstox_compound_id>
DTXCID305502

> <qc_level>


> <Canonical_QSARr>
CC(C)=CCCC(C)(O)C=C

> <InChI_Code_QSARr>
InChI=1S/C10H18O/c1-5-10(4,11)8-6-7-9(2)3/h5,7,11H,1,6,8H2,2-4H3

> <InChI Key_QSARr>
CDOSHBSSFJOMGT-UHFFFAOYSA-N

> <Salt_Solvent>


> <Salt_Solvent_ID>
0

> <MPID>
101290

> <Tr_1_Tst_0>
0

> <Ready_Biodeg>
1.0

$$$$
Row1256
  Mrv171c012251911052D          

  9  8  0  0  0  0            999 V2000
    1.1000   -0.0491    0.0000 C   0  0  0  0  0  0  0  0  0  0  0  0
    0.6875    0.6653    0.0000 C   0  0  0  0  0  0  0  0  0  0  0  0
    1.1000    1.3798    0.0000 C   0  0  0  0  0  0  0  0  0  0  0  0
   -0.1375    0.6653    0.0000 C   0  0  0  0  0  0  0  0  0  0  0  0
   -0.5500   -0.0491    0.0000 C   0  0  0  0  0  0  0  0  0  0  0  0
   -0.1375   -0.7636    0.0000 C   0  0  0  0  0  0  0  0  0  0  0  0
   -0.5500   -1.4781    0.0000 C   0  0  0  0  0  0  0  0  0  0  0  0
   -0.1375   -2.1925    0.0000 C   0  0  0  0  0  0  0  0  0  0  0  0
   -1.3750   -1.4781    0.0000 O   0  0  0  0  0  0  0  0  0  0  0  0
  1  2  1  0  0  0  0
  2  3  1  0  0  0  0
  2  4  2  0  0  0  0
  4  5  1  0  0  0  0
  5  6  1  0  0  0  0
  6  7  1  0  0  0  0
  7  8  1  0  0  0  0
  7  9  2  0  0  0  0
M  END
> <ChemID>
201447

> <CAS>
110-93-0

> <Original_SMILES>
CC(C)=CCCC(C)=O

> <preferred_name>
6-Methyl-5-hepten-2-one

> <dsstox_substance_id>
DTXSID5021629

> <dsstox_compound_id>
DTXCID501629

> <qc_level>


> <Canonical_QSARr>
CC(C)=CCCC(C)=O

> <InChI_Code_QSARr>
InChI=1S/C8H14O/c1-7(2)5-4-6-8(3)9/h5H,4,6H2,1-3H3

> <InChI Key_QSARr>
UHEPJGULSIKKTP-UHFFFAOYSA-N

> <Salt_Solvent>


> <Salt_Solvent_ID>
0

> <MPID>
101291

> <Tr_1_Tst_0>
1

> <Ready_Biodeg>
1.0

$$$$
Row1257
  Mrv171c012251911052D          

  8  7  0  0  0  0            999 V2000
    2.0625    0.7145    0.0000 C   0  0  0  0  0  0  0  0  0  0  0  0
    1.2375    0.7145    0.0000 C   0  0  0  0  0  0  0  0  0  0  0  0
    0.8250    1.4289    0.0000 C   0  0  0  0  0  0  0  0  0  0  0  0
    0.8250    0.0000    0.0000 N   0  0  0  0  0  0  0  0  0  0  0  0
    0.0000    0.0000    0.0000 N   0  0  0  0  0  0  0  0  0  0  0  0
   -0.4125   -0.7145    0.0000 C   0  0  0  0  0  0  0  0  0  0  0  0
    0.0000   -1.4289    0.0000 N   0  0  0  0  0  0  0  0  0  0  0  0
   -1.2375   -0.7145    0.0000 S   0  0  0  0  0  0  0  0  0  0  0  0
  1  2  1  0  0  0  0
  2  3  1  0  0  0  0
  4  2  1  4  0  0  0
  4  5  2  0  0  0  0
  5  6  1  0  0  0  0
  6  7  1  0  0  0  0
  6  8  2  0  0  0  0
M  END
> <ChemID>
201448

> <CAS>
1752-30-3

> <Original_SMILES>
CC(C)=NNC(N)=S

> <preferred_name>
Acetone thiosemicarbazide

> <dsstox_substance_id>
DTXSID6044480

> <dsstox_compound_id>
DTXCID4024480

> <qc_level>


> <Canonical_QSARr>
CC(C)N=NC(N)=S

> <InChI_Code_QSARr>
InChI=1S/C4H9N3S/c1-3(2)6-7-4(5)8/h3H,1-2H3,(H2,5,8)

> <InChI Key_QSARr>
SVVFWWUVVASHTR-UHFFFAOYSA-N

> <Salt_Solvent>


> <Salt_Solvent_ID>
0

> <MPID>
101292

> <Tr_1_Tst_0>
1

> <Ready_Biodeg>
0.0

$$$$
Row1258
  Mrv171c012251911052D          

  6  5  0  0  0  0            999 V2000
    0.0822    1.3970    0.0000 C   0  0  0  0  0  0  0  0  0  0  0  0
    0.4947    0.6826    0.0000 C   0  0  0  0  0  0  0  0  0  0  0  0
    1.3197    0.6826    0.0000 C   0  0  0  0  0  0  0  0  0  0  0  0
    0.0822   -0.0319    0.0000 C   0  0  0  0  0  0  0  0  0  0  0  0
    0.4947   -0.7464    0.0000 C   0  0  0  0  0  0  0  0  0  0  0  0
   -0.7428   -0.0319    0.0000 O   0  0  0  0  0  0  0  0  0  0  0  0
  1  2  1  0  0  0  0
  2  3  1  0  0  0  0
  2  4  1  0  0  0  0
  4  5  1  0  0  0  0
  4  6  2  0  0  0  0
M  END
> <ChemID>
201453

> <CAS>
563-80-4

> <Original_SMILES>
CC(C)C(C)=O

> <preferred_name>
3-Methyl-2-butanone

> <dsstox_substance_id>
DTXSID0022062

> <dsstox_compound_id>
DTXCID802062

> <qc_level>


> <Canonical_QSARr>
CC(C)C(C)=O

> <InChI_Code_QSARr>
InChI=1S/C5H10O/c1-4(2)5(3)6/h4H,1-3H3

> <InChI Key_QSARr>
SYBYTAAJFKOIEJ-UHFFFAOYSA-N

> <Salt_Solvent>


> <Salt_Solvent_ID>
0

> <MPID>
101293

> <Tr_1_Tst_0>
0

> <Ready_Biodeg>
1.0

$$$$
Row1259
  Mrv171c012251911052D          

 12 11  0  0  0  0            999 V2000
    1.3055   -1.5102    0.0000 C   0  0  0  0  0  0  0  0  0  0  0  0
    0.5911   -1.0977    0.0000 C   0  0  0  0  0  0  0  0  0  0  0  0
   -0.1234   -1.5102    0.0000 C   0  0  0  0  0  0  0  0  0  0  0  0
    0.5911   -0.2727    0.0000 C   0  0  0  0  0  0  0  0  0  0  0  0
   -0.1234    0.1398    0.0000 N   0  0  0  0  0  0  0  0  0  0  0  0
   -0.8379   -0.2727    0.0000 C   0  0  0  0  0  0  0  0  0  0  0  0
   -1.5523    0.1398    0.0000 N   0  0  0  0  0  0  0  0  0  0  0  0
   -0.8379   -1.0977    0.0000 O   0  0  0  0  0  0  0  0  0  0  0  0
    1.3055    0.1398    0.0000 N   0  0  0  0  0  0  0  0  0  0  0  0
    2.0200   -0.2727    0.0000 C   0  0  0  0  0  0  0  0  0  0  0  0
    2.7345    0.1398    0.0000 N   0  0  0  0  0  0  0  0  0  0  0  0
    2.0200   -1.0977    0.0000 O   0  0  0  0  0  0  0  0  0  0  0  0
  1  2  1  0  0  0  0
  2  3  1  0  0  0  0
  2  4  1  0  0  0  0
  4  5  1  0  0  0  0
  5  6  1  0  0  0  0
  6  7  1  0  0  0  0
  6  8  2  0  0  0  0
  4  9  1  0  0  0  0
  9 10  1  0  0  0  0
 10 11  1  0  0  0  0
 10 12  2  0  0  0  0
M  END
> <ChemID>
201454

> <CAS>
6104-30-9

> <Original_SMILES>
CC(C)C(NC(N)=O)NC(N)=O

> <preferred_name>
Isobutylidene diurea

> <dsstox_substance_id>
DTXSID8027614

> <dsstox_compound_id>
DTXCID807614

> <qc_level>


> <Canonical_QSARr>
CC(C)C(NC(N)=O)NC(N)=O

> <InChI_Code_QSARr>
InChI=1S/C6H14N4O2/c1-3(2)4(9-5(7)11)10-6(8)12/h3-4H,1-2H3,(H3,7,9,11)(H3,8,10,12)

> <InChI Key_QSARr>
QFHMNFAUXJAINK-UHFFFAOYSA-N

> <Salt_Solvent>


> <Salt_Solvent_ID>
0

> <MPID>
101294

> <Tr_1_Tst_0>
1

> <Ready_Biodeg>
1.0

$$$$
Row1260
  Mrv171c012251911052D          

 17 19  0  0  0  0            999 V2000
    0.9628    1.0331    0.0000 C   0  0  0  0  0  0  0  0  0  0  0  0
    0.9628    0.2081    0.0000 C   0  0  0  0  0  0  0  0  0  0  0  0
    1.6773   -0.2044    0.0000 C   0  0  0  0  0  0  0  0  0  0  0  0
    0.2484   -0.2044    0.0000 C   0  0  0  0  0  0  0  0  0  0  0  0
    0.2484   -1.0294    0.0000 C   0  0  0  0  0  0  0  0  0  0  0  0
   -0.4661   -1.4419    0.0000 C   0  0  0  0  0  0  0  0  0  0  0  0
   -0.3286   -0.8919    0.0000 C   0  0  0  0  0  0  0  0  0  0  0  0
    0.4813   -0.7347    0.0000 C   0  0  0  0  0  0  0  0  0  0  0  0
   -0.3286   -0.3419    0.0000 C   0  0  0  0  0  0  0  0  0  0  0  0
   -0.4661    0.2081    0.0000 C   0  0  0  0  0  0  0  0  0  0  0  0
   -1.1806   -0.2044    0.0000 C   0  0  0  0  0  0  0  0  0  0  0  0
   -1.1806   -1.0294    0.0000 C   0  0  0  0  0  0  0  0  0  0  0  0
   -1.9652   -1.2843    0.0000 C   0  0  0  0  0  0  0  0  0  0  0  0
   -2.2201   -2.0689    0.0000 O   0  0  0  0  0  0  0  0  0  0  0  0
   -2.4501   -0.6169    0.0000 O   0  0  0  0  0  0  0  0  0  0  0  0
   -1.9652    0.0506    0.0000 C   0  0  0  0  0  0  0  0  0  0  0  0
   -2.2201    0.8352    0.0000 O   0  0  0  0  0  0  0  0  0  0  0  0
  1  2  1  0  0  0  0
  2  3  1  0  0  0  0
  2  4  1  0  0  0  0
  5  4  2  0  0  0  0
  6  5  1  0  0  0  0
  6  7  1  0  0  0  0
  7  8  1  0  0  0  0
  7  9  1  0  0  0  0
  9 10  1  0  0  0  0
  4 10  1  0  0  0  0
 10 11  1  0  0  0  0
 12 11  1  0  0  0  0
 12  6  1  0  0  0  0
 13 12  1  0  0  0  0
 13 14  2  0  0  0  0
 15 13  1  0  0  0  0
 16 15  1  0  0  0  0
 11 16  1  0  0  0  0
 16 17  2  0  0  0  0
M  END
> <ChemID>
201456

> <CAS>
3733-79-7

> <Original_SMILES>
CC(C)C1=CC2C3C(C1CC2C)C(=O)OC3=O

> <preferred_name>


> <dsstox_substance_id>


> <dsstox_compound_id>


> <qc_level>


> <Canonical_QSARr>
CC(C)C1=CC2C3C(C1CC2C)C(=O)OC3=O

> <InChI_Code_QSARr>
InChI=1S/C14H18O3/c1-6(2)8-5-9-7(3)4-10(8)12-11(9)13(15)17-14(12)16/h5-7,9-12H,4H2,1-3H3

> <InChI Key_QSARr>
OITCDHHARKRUDP-UHFFFAOYSA-N

> <Salt_Solvent>


> <Salt_Solvent_ID>
0

> <MPID>
101295

> <Tr_1_Tst_0>
1

> <Ready_Biodeg>
0.0

$$$$
Row1261
  Mrv171c012251911052D          

 13 14  0  0  0  0            999 V2000
   -1.8150   -1.7645    0.0000 C   0  0  0  0  0  0  0  0  0  0  0  0
   -1.1005   -1.3520    0.0000 C   0  0  0  0  0  0  0  0  0  0  0  0
   -0.3860   -1.7645    0.0000 C   0  0  0  0  0  0  0  0  0  0  0  0
   -1.1005   -0.5270    0.0000 C   0  0  0  0  0  0  0  0  0  0  0  0
   -1.8150   -0.1145    0.0000 C   0  0  0  0  0  0  0  0  0  0  0  0
   -1.8150    0.7105    0.0000 C   0  0  0  0  0  0  0  0  0  0  0  0
   -1.1005    1.1230    0.0000 C   0  0  0  0  0  0  0  0  0  0  0  0
   -0.3860    0.7105    0.0000 C   0  0  0  0  0  0  0  0  0  0  0  0
    0.3284    1.1230    0.0000 C   0  0  0  0  0  0  0  0  0  0  0  0
    1.0429    0.7105    0.0000 C   0  0  0  0  0  0  0  0  0  0  0  0
    1.0429   -0.1145    0.0000 C   0  0  0  0  0  0  0  0  0  0  0  0
    0.3284   -0.5270    0.0000 C   0  0  0  0  0  0  0  0  0  0  0  0
   -0.3860   -0.1145    0.0000 C   0  0  0  0  0  0  0  0  0  0  0  0
  1  2  1  0  0  0  0
  2  3  1  0  0  0  0
  2  4  1  0  0  0  0
  5  4  1  0  0  0  0
  6  5  1  0  0  0  0
  7  6  1  0  0  0  0
  8  7  1  0  0  0  0
  8  9  2  0  0  0  0
  9 10  1  0  0  0  0
 10 11  2  0  0  0  0
 11 12  1  0  0  0  0
 12 13  2  0  0  0  0
  4 13  1  0  0  0  0
 13  8  1  0  0  0  0
M  END
> <ChemID>
201458

> <CAS>
26916-60-9

> <Original_SMILES>
CC(C)C1CCCc2ccccc21

> <preferred_name>


> <dsstox_substance_id>


> <dsstox_compound_id>


> <qc_level>


> <Canonical_QSARr>
CC(C)C1CCCC2=CC=CC=C21

> <InChI_Code_QSARr>
InChI=1S/C13H18/c1-10(2)12-9-5-7-11-6-3-4-8-13(11)12/h3-4,6,8,10,12H,5,7,9H2,1-2H3

> <InChI Key_QSARr>
LRCMZPVVFRECQR-UHFFFAOYSA-N

> <Salt_Solvent>


> <Salt_Solvent_ID>
0

> <MPID>
101296

> <Tr_1_Tst_0>
1

> <Ready_Biodeg>
0.0

$$$$
Row1262
  Mrv171c012251911052D          

 10 10  0  0  0  0            999 V2000
   -0.6387   -1.3338    0.0000 C   0  0  0  0  0  0  0  0  0  0  0  0
   -0.3032   -0.5801    0.0000 C   0  0  0  0  0  0  0  0  0  0  0  0
    0.5173   -0.4939    0.0000 C   0  0  0  0  0  0  0  0  0  0  0  0
   -0.7881    0.0873    0.0000 C   0  0  0  0  0  0  0  0  0  0  0  0
   -0.5332    0.8720    0.0000 N   0  0  0  0  0  0  0  0  0  0  0  0
   -1.2006    1.3569    0.0000 C   0  0  0  0  0  0  0  0  0  0  0  0
   -1.2006    2.1819    0.0000 O   0  0  0  0  0  0  0  0  0  0  0  0
   -1.8681    0.8720    0.0000 N   0  0  0  0  0  0  0  0  0  0  0  0
   -1.6131    0.0873    0.0000 C   0  0  0  0  0  0  0  0  0  0  0  0
   -2.0980   -0.5801    0.0000 O   0  0  0  0  0  0  0  0  0  0  0  0
  1  2  1  0  0  0  0
  2  3  1  0  0  0  0
  2  4  1  0  0  0  0
  5  4  1  0  0  0  0
  6  5  1  0  0  0  0
  6  7  2  0  0  0  0
  8  6  1  0  0  0  0
  9  8  1  0  0  0  0
  4  9  1  0  0  0  0
  9 10  2  0  0  0  0
M  END
> <ChemID>
201459

> <CAS>
16935-34-5

> <Original_SMILES>
CC(C)C1NC(=O)NC1=O

> <preferred_name>


> <dsstox_substance_id>


> <dsstox_compound_id>


> <qc_level>


> <Canonical_QSARr>
CC(C)C1NC(=O)NC1=O

> <InChI_Code_QSARr>
InChI=1S/C6H10N2O2/c1-3(2)4-5(9)8-6(10)7-4/h3-4H,1-2H3,(H2,7,8,9,10)

> <InChI Key_QSARr>
PBNUQCWZHRMSMS-UHFFFAOYSA-N

> <Salt_Solvent>


> <Salt_Solvent_ID>
0

> <MPID>
101297

> <Tr_1_Tst_0>
1

> <Ready_Biodeg>
0.0

$$$$
Row1263
  Mrv171c012251911052D          

  8  7  0  0  0  0            999 V2000
    0.3631   -1.6321    0.0000 C   0  0  0  0  0  0  0  0  0  0  0  0
    0.3631   -0.8071    0.0000 C   0  0  0  0  0  0  0  0  0  0  0  0
   -0.3514   -0.3946    0.0000 C   0  0  0  0  0  0  0  0  0  0  0  0
    1.0776   -0.3946    0.0000 C   0  0  0  0  0  0  0  0  0  0  0  0
    1.0776    0.4304    0.0000 C   0  0  0  0  0  0  0  0  0  0  0  0
    1.0776    1.2554    0.0000 C   0  0  0  0  0  0  0  0  0  0  0  0
    1.9026    0.4304    0.0000 C   0  0  0  0  0  0  0  0  0  0  0  0
    0.2526    0.4304    0.0000 C   0  0  0  0  0  0  0  0  0  0  0  0
  1  2  1  0  0  0  0
  2  3  1  0  0  0  0
  2  4  1  0  0  0  0
  4  5  1  0  0  0  0
  5  6  1  0  0  0  0
  5  7  1  0  0  0  0
  5  8  1  0  0  0  0
M  END
> <ChemID>
201461

> <CAS>
540-84-1

> <Original_SMILES>
CC(C)CC(C)(C)C

> <preferred_name>
2,2,4-Trimethylpentane

> <dsstox_substance_id>
DTXSID7024370

> <dsstox_compound_id>
DTXCID104370

> <qc_level>


> <Canonical_QSARr>
CC(C)CC(C)(C)C

> <InChI_Code_QSARr>
InChI=1S/C8H18/c1-7(2)6-8(3,4)5/h7H,6H2,1-5H3

> <InChI Key_QSARr>
NHTMVDHEPJAVLT-UHFFFAOYSA-N

> <Salt_Solvent>


> <Salt_Solvent_ID>
0

> <MPID>
101298

> <Tr_1_Tst_0>
0

> <Ready_Biodeg>
0.0

$$$$
Row1264
  Mrv171c012251911052D          

 20 21  0  0  0  0            999 V2000
   -6.3366   -1.3543    0.0000 C   0  0  0  0  0  0  0  0  0  0  0  0
   -5.6221   -0.9418    0.0000 C   0  0  0  0  0  0  0  0  0  0  0  0
   -5.6221   -0.1168    0.0000 C   0  0  0  0  0  0  0  0  0  0  0  0
   -4.9077   -1.3543    0.0000 C   0  0  0  0  0  0  0  0  0  0  0  0
   -4.1932   -0.9418    0.0000 C   0  0  0  0  0  0  0  0  0  0  0  0
   -4.1932   -0.1168    0.0000 C   0  0  0  0  0  0  0  0  0  0  0  0
   -3.4787   -1.3543    0.0000 N   0  0  0  0  0  0  0  0  0  0  0  0
   -2.7642   -0.9418    0.0000 C   0  0  0  0  0  0  0  0  0  0  0  0
   -2.0498   -1.3543    0.0000 C   0  0  0  0  0  0  0  0  0  0  0  0
   -1.3353   -0.9418    0.0000 C   0  0  0  0  0  0  0  0  0  0  0  0
   -1.3353   -0.1168    0.0000 C   0  0  0  0  0  0  0  0  0  0  0  0
   -0.6208    0.2957    0.0000 N   0  0  0  0  0  0  0  0  0  0  0  0
    0.0936   -0.1168    0.0000 C   0  0  0  0  0  0  0  0  0  0  0  0
    0.0936   -0.9418    0.0000 C   0  0  0  0  0  0  0  0  0  0  0  0
    0.8081   -1.3543    0.0000 C   0  0  0  0  0  0  0  0  0  0  0  0
    1.5226   -0.9418    0.0000 C   0  0  0  0  0  0  0  0  0  0  0  0
    1.5226   -0.1168    0.0000 C   0  0  0  0  0  0  0  0  0  0  0  0
    0.8081    0.2957    0.0000 C   0  0  0  0  0  0  0  0  0  0  0  0
   -2.0498    0.2957    0.0000 C   0  0  0  0  0  0  0  0  0  0  0  0
   -2.7642   -0.1168    0.0000 C   0  0  0  0  0  0  0  0  0  0  0  0
  1  2  1  0  0  0  0
  2  3  1  0  0  0  0
  2  4  1  0  0  0  0
  4  5  1  0  0  0  0
  5  6  1  0  0  0  0
  5  7  1  0  0  0  0
  7  8  1  0  0  0  0
  9  8  2  0  0  0  0
 10  9  1  0  0  0  0
 11 10  2  0  0  0  0
 11 12  1  0  0  0  0
 12 13  1  0  0  0  0
 14 13  2  0  0  0  0
 15 14  1  0  0  0  0
 16 15  2  0  0  0  0
 17 16  1  0  0  0  0
 18 17  2  0  0  0  0
 13 18  1  0  0  0  0
 19 11  1  0  0  0  0
 20 19  2  0  0  0  0
  8 20  1  0  0  0  0
M  END
> <ChemID>
201463

> <CAS>
793-24-8

> <Original_SMILES>
CC(C)CC(C)Nc1ccc(cc1)Nc1ccccc1

> <preferred_name>
N-(1,3-Dimethylbutyl)-N'-phenyl-p-phenylenediamine

> <dsstox_substance_id>
DTXSID9025114

> <dsstox_compound_id>
DTXCID605114

> <qc_level>


> <Canonical_QSARr>
CC(C)CC(C)NC1C=CC(=CC=1)NC1C=CC=CC=1

> <InChI_Code_QSARr>
InChI=1S/C18H24N2/c1-14(2)13-15(3)19-17-9-11-18(12-10-17)20-16-7-5-4-6-8-16/h4-12,14-15,19-20H,13H2,1-3H3

> <InChI Key_QSARr>
ZZMVLMVFYMGSMY-UHFFFAOYSA-N

> <Salt_Solvent>


> <Salt_Solvent_ID>
0

> <MPID>
101299

> <Tr_1_Tst_0>
1

> <Ready_Biodeg>
0.0

$$$$
Row1265
  Mrv171c012251911052D          

  6  5  0  0  0  0            999 V2000
    1.5261   -0.7555    0.0000 C   0  0  0  0  0  0  0  0  0  0  0  0
    1.1136   -0.0411    0.0000 C   0  0  0  0  0  0  0  0  0  0  0  0
    1.5261    0.6734    0.0000 C   0  0  0  0  0  0  0  0  0  0  0  0
    0.2886   -0.0411    0.0000 C   0  0  0  0  0  0  0  0  0  0  0  0
   -0.1239    0.6734    0.0000 C   0  0  0  0  0  0  0  0  0  0  0  0
   -0.9489    0.6734    0.0000 C   0  0  0  0  0  0  0  0  0  0  0  0
  1  2  1  0  0  0  0
  2  3  1  0  0  0  0
  2  4  1  0  0  0  0
  4  5  1  0  0  0  0
  5  6  2  0  0  0  0
M  END
> <ChemID>
201464

> <CAS>
691-37-2

> <Original_SMILES>
CC(C)CC=C

> <preferred_name>
4-Methyl-1-pentene

> <dsstox_substance_id>
DTXSID3061001

> <dsstox_compound_id>
DTXCID8046454

> <qc_level>


> <Canonical_QSARr>
CC(C)CC=C

> <InChI_Code_QSARr>
InChI=1S/C6H12/c1-4-5-6(2)3/h4,6H,1,5H2,2-3H3

> <InChI Key_QSARr>
WSSSPWUEQFSQQG-UHFFFAOYSA-N

> <Salt_Solvent>


> <Salt_Solvent_ID>
0

> <MPID>
101300

> <Tr_1_Tst_0>
1

> <Ready_Biodeg>
0.0

$$$$
Row1266
  Mrv171c012251911052D          

 20 19  0  0  0  0            999 V2000
    0.0047    0.8905    0.0000 C   0  0  0  0  0  0  0  0  0  0  0  0
    0.7192    1.3030    0.0000 C   0  0  0  0  0  0  0  0  0  0  0  0
    0.7192    2.1280    0.0000 C   0  0  0  0  0  0  0  0  0  0  0  0
    1.4337    0.8905    0.0000 C   0  0  0  0  0  0  0  0  0  0  0  0
    2.1481    1.3030    0.0000 C   0  0  0  0  0  0  0  0  0  0  0  0
    2.8626    0.8905    0.0000 C   0  0  0  0  0  0  0  0  0  0  0  0
    3.5771    1.3030    0.0000 C   0  0  0  0  0  0  0  0  0  0  0  0
    4.2916    0.8905    0.0000 C   0  0  0  0  0  0  0  0  0  0  0  0
    5.0060    1.3030    0.0000 C   0  0  0  0  0  0  0  0  0  0  0  0
    5.7205    0.8905    0.0000 C   0  0  0  0  0  0  0  0  0  0  0  0
    6.4350    1.3030    0.0000 C   0  0  0  0  0  0  0  0  0  0  0  0
    7.1494    0.8905    0.0000 C   0  0  0  0  0  0  0  0  0  0  0  0
    7.8639    1.3030    0.0000 C   0  0  0  0  0  0  0  0  0  0  0  0
    8.5784    0.8905    0.0000 C   0  0  0  0  0  0  0  0  0  0  0  0
    9.2929    1.3030    0.0000 C   0  0  0  0  0  0  0  0  0  0  0  0
   10.0073    0.8905    0.0000 C   0  0  0  0  0  0  0  0  0  0  0  0
   10.7218    1.3030    0.0000 C   0  0  0  0  0  0  0  0  0  0  0  0
   11.4363    0.8905    0.0000 C   0  0  0  0  0  0  0  0  0  0  0  0
   12.1507    1.3030    0.0000 O   0  0  0  0  0  0  0  0  0  0  0  0
   11.4363    0.0655    0.0000 O   0  0  0  0  0  0  0  0  0  0  0  0
  1  2  1  0  0  0  0
  2  3  1  0  0  0  0
  2  4  1  0  0  0  0
  4  5  1  0  0  0  0
  5  6  1  0  0  0  0
  6  7  1  0  0  0  0
  7  8  1  0  0  0  0
  8  9  1  0  0  0  0
  9 10  1  0  0  0  0
 10 11  1  0  0  0  0
 11 12  1  0  0  0  0
 12 13  1  0  0  0  0
 13 14  1  0  0  0  0
 14 15  1  0  0  0  0
 15 16  1  0  0  0  0
 16 17  1  0  0  0  0
 17 18  1  0  0  0  0
 18 19  1  0  0  0  0
 18 20  2  0  0  0  0
M  END
> <ChemID>
201465

> <CAS>
2724-58-5

> <Original_SMILES>
CC(C)CCCCCCCCCCCCCCC(O)=O

> <preferred_name>
Isostearic acid

> <dsstox_substance_id>
DTXSID1040790

> <dsstox_compound_id>
DTXCID507963

> <qc_level>


> <Canonical_QSARr>
CC(C)CCCCCCCCCCCCCCC(O)=O

> <InChI_Code_QSARr>
InChI=1S/C18H36O2/c1-17(2)15-13-11-9-7-5-3-4-6-8-10-12-14-16-18(19)20/h17H,3-16H2,1-2H3,(H,19,20)

> <InChI Key_QSARr>
XDOFQFKRPWOURC-UHFFFAOYSA-N

> <Salt_Solvent>


> <Salt_Solvent_ID>
0

> <MPID>
101301

> <Tr_1_Tst_0>
0

> <Ready_Biodeg>
1.0

$$$$
Row1267
  Mrv171c012251911052D          

 30 30  0  0  0  0            999 V2000
  -11.1177   -1.9745    0.0000 C   0  0  0  0  0  0  0  0  0  0  0  0
  -10.3076   -1.8185    0.0000 C   0  0  0  0  0  0  0  0  0  0  0  0
  -10.0375   -1.0390    0.0000 C   0  0  0  0  0  0  0  0  0  0  0  0
   -9.7675   -2.4422    0.0000 C   0  0  0  0  0  0  0  0  0  0  0  0
   -8.9573   -2.2863    0.0000 C   0  0  0  0  0  0  0  0  0  0  0  0
   -8.4172   -2.9099    0.0000 C   0  0  0  0  0  0  0  0  0  0  0  0
   -7.6071   -2.7540    0.0000 C   0  0  0  0  0  0  0  0  0  0  0  0
   -7.0670   -3.3776    0.0000 C   0  0  0  0  0  0  0  0  0  0  0  0
   -6.2569   -3.2217    0.0000 C   0  0  0  0  0  0  0  0  0  0  0  0
   -5.7168   -3.8454    0.0000 O   0  0  0  0  0  0  0  0  0  0  0  0
   -4.9067   -3.6895    0.0000 C   0  0  0  0  0  0  0  0  0  0  0  0
   -4.6366   -2.9099    0.0000 O   0  0  0  0  0  0  0  0  0  0  0  0
   -4.3666   -4.3131    0.0000 C   0  0  0  0  0  0  0  0  0  0  0  0
   -4.6366   -5.0927    0.0000 C   0  0  0  0  0  0  0  0  0  0  0  0
   -4.0965   -5.7163    0.0000 C   0  0  0  0  0  0  0  0  0  0  0  0
   -3.2864   -5.5604    0.0000 C   0  0  0  0  0  0  0  0  0  0  0  0
   -3.0163   -4.7808    0.0000 C   0  0  0  0  0  0  0  0  0  0  0  0
   -3.5564   -4.1572    0.0000 C   0  0  0  0  0  0  0  0  0  0  0  0
   -3.2864   -3.3776    0.0000 C   0  0  0  0  0  0  0  0  0  0  0  0
   -2.4763   -3.2217    0.0000 O   0  0  0  0  0  0  0  0  0  0  0  0
   -3.8265   -2.7540    0.0000 O   0  0  0  0  0  0  0  0  0  0  0  0
   -3.5564   -1.9745    0.0000 C   0  0  0  0  0  0  0  0  0  0  0  0
   -2.7463   -1.8185    0.0000 C   0  0  0  0  0  0  0  0  0  0  0  0
   -2.2062   -2.4422    0.0000 C   0  0  0  0  0  0  0  0  0  0  0  0
   -1.3961   -2.2863    0.0000 C   0  0  0  0  0  0  0  0  0  0  0  0
   -0.8560   -2.9099    0.0000 C   0  0  0  0  0  0  0  0  0  0  0  0
   -0.0459   -2.7540    0.0000 C   0  0  0  0  0  0  0  0  0  0  0  0
    0.4942   -3.3776    0.0000 C   0  0  0  0  0  0  0  0  0  0  0  0
    1.3044   -3.2217    0.0000 C   0  0  0  0  0  0  0  0  0  0  0  0
    0.2242   -4.1572    0.0000 C   0  0  0  0  0  0  0  0  0  0  0  0
  1  2  1  0  0  0  0
  2  3  1  0  0  0  0
  2  4  1  0  0  0  0
  4  5  1  0  0  0  0
  5  6  1  0  0  0  0
  6  7  1  0  0  0  0
  7  8  1  0  0  0  0
  8  9  1  0  0  0  0
  9 10  1  0  0  0  0
 10 11  1  0  0  0  0
 11 12  2  0  0  0  0
 11 13  1  0  0  0  0
 14 13  2  0  0  0  0
 15 14  1  0  0  0  0
 16 15  2  0  0  0  0
 17 16  1  0  0  0  0
 18 17  2  0  0  0  0
 13 18  1  0  0  0  0
 18 19  1  0  0  0  0
 19 20  2  0  0  0  0
 19 21  1  0  0  0  0
 21 22  1  0  0  0  0
 22 23  1  0  0  0  0
 23 24  1  0  0  0  0
 24 25  1  0  0  0  0
 25 26  1  0  0  0  0
 26 27  1  0  0  0  0
 27 28  1  0  0  0  0
 28 29  1  0  0  0  0
 28 30  1  0  0  0  0
M  END
> <ChemID>
201466

> <CAS>
20548-62-3

> <Original_SMILES>
CC(C)CCCCCCOC(=O)c1ccccc1C(=O)OCCCCCCC(C)C

> <preferred_name>


> <dsstox_substance_id>
DTXSID60860420

> <dsstox_compound_id>
DTXCID202521

> <qc_level>


> <Canonical_QSARr>
CC(C)CCCCCCOC(=O)C1=CC=CC=C1C(=O)OCCCCCCC(C)C

> <InChI_Code_QSARr>
InChI=1S/C26H42O4/c1-21(2)15-9-5-7-13-19-29-25(27)23-17-11-12-18-24(23)26(28)30-20-14-8-6-10-16-22(3)4/h11-12,17-18,21-22H,5-10,13-16,19-20H2,1-4H3

> <InChI Key_QSARr>
HBGGXOJOCNVPFY-UHFFFAOYSA-N

> <Salt_Solvent>


> <Salt_Solvent_ID>
0

> <MPID>
101302

> <Tr_1_Tst_0>
1

> <Ready_Biodeg>
1.0

$$$$
Row1268
  Mrv171c012251911052D          

 24 26  0  0  0  0            999 V2000
   -0.0809    0.1867    0.0000 C   0  0  0  0  0  0  0  0  0  0  0  0
    0.6336    0.5992    0.0000 C   0  0  0  0  0  0  0  0  0  0  0  0
    0.6336    1.4242    0.0000 C   0  0  0  0  0  0  0  0  0  0  0  0
    1.3480    0.1867    0.0000 N   0  0  0  0  0  0  0  0  0  0  0  0
    1.3480   -0.6383    0.0000 C   0  0  0  0  0  0  0  0  0  0  0  0
    0.6336   -1.0508    0.0000 C   0  0  0  0  0  0  0  0  0  0  0  0
    0.6336   -1.8758    0.0000 C   0  0  0  0  0  0  0  0  0  0  0  0
    1.3480   -2.2883    0.0000 C   0  0  0  0  0  0  0  0  0  0  0  0
    1.3480   -3.1133    0.0000 N   0  0  0  0  0  0  0  0  0  0  0  0
    0.6336   -3.5258    0.0000 C   0  0  0  0  0  0  0  0  0  0  0  0
    0.6336   -4.3508    0.0000 C   0  0  0  0  0  0  0  0  0  0  0  0
   -0.0809   -3.1133    0.0000 C   0  0  0  0  0  0  0  0  0  0  0  0
    2.0625   -1.8758    0.0000 C   0  0  0  0  0  0  0  0  0  0  0  0
    2.7770   -2.2883    0.0000 C   0  0  0  0  0  0  0  0  0  0  0  0
    2.7770   -3.1133    0.0000 O   0  0  0  0  0  0  0  0  0  0  0  0
    3.4914   -1.8758    0.0000 C   0  0  0  0  0  0  0  0  0  0  0  0
    4.2059   -2.2883    0.0000 C   0  0  0  0  0  0  0  0  0  0  0  0
    4.9204   -1.8758    0.0000 C   0  0  0  0  0  0  0  0  0  0  0  0
    4.9204   -1.0508    0.0000 C   0  0  0  0  0  0  0  0  0  0  0  0
    4.2059   -0.6383    0.0000 C   0  0  0  0  0  0  0  0  0  0  0  0
    3.4914   -1.0508    0.0000 C   0  0  0  0  0  0  0  0  0  0  0  0
    2.7770   -0.6383    0.0000 C   0  0  0  0  0  0  0  0  0  0  0  0
    2.7770    0.1867    0.0000 O   0  0  0  0  0  0  0  0  0  0  0  0
    2.0625   -1.0508    0.0000 C   0  0  0  0  0  0  0  0  0  0  0  0
  1  2  1  0  0  0  0
  2  3  1  0  0  0  0
  2  4  1  0  0  0  0
  4  5  1  0  0  0  0
  6  5  2  0  0  0  0
  7  6  1  0  0  0  0
  8  7  2  0  0  0  0
  8  9  1  0  0  0  0
  9 10  1  0  0  0  0
 10 11  1  0  0  0  0
 10 12  1  0  0  0  0
 13  8  1  0  0  0  0
 13 14  1  0  0  0  0
 14 15  2  0  0  0  0
 14 16  1  0  0  0  0
 17 16  2  0  0  0  0
 18 17  1  0  0  0  0
 19 18  2  0  0  0  0
 20 19  1  0  0  0  0
 21 20  2  0  0  0  0
 16 21  1  0  0  0  0
 21 22  1  0  0  0  0
 22 23  2  0  0  0  0
 22 24  1  0  0  0  0
  5 24  1  0  0  0  0
 24 13  2  0  0  0  0
M  END
> <ChemID>
201473

> <CAS>
14233-37-5

> <Original_SMILES>
CC(C)Nc1ccc(NC(C)C)c2c1C(=O)c1ccccc1C2=O

> <preferred_name>
1,4-Bis(N-isopropylamino)anthraquinone

> <dsstox_substance_id>
DTXSID2041250

> <dsstox_compound_id>
DTXCID0021250

> <qc_level>


> <Canonical_QSARr>
CC(C)NC1=CC=C(NC(C)C)C2=C1C(=O)C1=CC=CC=C1C2=O

> <InChI_Code_QSARr>
InChI=1S/C20H22N2O2/c1-11(2)21-15-9-10-16(22-12(3)4)18-17(15)19(23)13-7-5-6-8-14(13)20(18)24/h5-12,21-22H,1-4H3

> <InChI Key_QSARr>
BLFZMXOCPASACY-UHFFFAOYSA-N

> <Salt_Solvent>


> <Salt_Solvent_ID>
0

> <MPID>
101303

> <Tr_1_Tst_0>
0

> <Ready_Biodeg>
0.0

$$$$
Row1269
  Mrv171c012251911052D          

  7  6  0  0  0  0            999 V2000
   -0.3825    1.5741    0.0000 C   0  0  0  0  0  0  0  0  0  0  0  0
   -0.7950    0.8596    0.0000 C   0  0  0  0  0  0  0  0  0  0  0  0
   -1.6200    0.8596    0.0000 C   0  0  0  0  0  0  0  0  0  0  0  0
   -0.3825    0.1452    0.0000 O   0  0  0  0  0  0  0  0  0  0  0  0
   -0.7950   -0.5693    0.0000 C   0  0  0  0  0  0  0  0  0  0  0  0
   -0.3825   -1.2838    0.0000 Cl  0  0  0  0  0  0  0  0  0  0  0  0
   -1.6200   -0.5693    0.0000 O   0  0  0  0  0  0  0  0  0  0  0  0
  1  2  1  0  0  0  0
  2  3  1  0  0  0  0
  2  4  1  0  0  0  0
  4  5  1  0  0  0  0
  5  6  1  0  0  0  0
  5  7  2  0  0  0  0
M  END
> <ChemID>
201476

> <CAS>
108-23-6

> <Original_SMILES>
CC(C)OC(=O)Cl

> <preferred_name>
Isopropyl chloroformate

> <dsstox_substance_id>
DTXSID7026786

> <dsstox_compound_id>
DTXCID806786

> <qc_level>


> <Canonical_QSARr>
CC(C)OC(=O)Cl

> <InChI_Code_QSARr>
InChI=1S/C4H7ClO2/c1-3(2)7-4(5)6/h3H,1-2H3

> <InChI Key_QSARr>
IVRIRQXJSNCSPQ-UHFFFAOYSA-N

> <Salt_Solvent>


> <Salt_Solvent_ID>
0

> <MPID>
101304

> <Tr_1_Tst_0>
1

> <Ready_Biodeg>
0.0

$$$$
Row1270
  Mrv171c012251911052D          

 12 11  0  0  0  0            999 V2000
   -3.2495   -1.9158    0.0000 C   0  0  0  0  0  0  0  0  0  0  0  0
   -2.5350   -1.5033    0.0000 C   0  0  0  0  0  0  0  0  0  0  0  0
   -1.8206   -1.9158    0.0000 C   0  0  0  0  0  0  0  0  0  0  0  0
   -2.5350   -0.6783    0.0000 O   0  0  0  0  0  0  0  0  0  0  0  0
   -1.8206   -0.2658    0.0000 C   0  0  0  0  0  0  0  0  0  0  0  0
   -1.1061   -0.6783    0.0000 O   0  0  0  0  0  0  0  0  0  0  0  0
   -1.8206    0.5592    0.0000 O   0  0  0  0  0  0  0  0  0  0  0  0
   -1.1061    0.9717    0.0000 O   0  0  0  0  0  0  0  0  0  0  0  0
   -1.1061    1.7967    0.0000 C   0  0  0  0  0  0  0  0  0  0  0  0
   -1.1061    2.6217    0.0000 C   0  0  0  0  0  0  0  0  0  0  0  0
   -0.2811    1.7967    0.0000 C   0  0  0  0  0  0  0  0  0  0  0  0
   -1.9311    1.7967    0.0000 C   0  0  0  0  0  0  0  0  0  0  0  0
  1  2  1  0  0  0  0
  2  3  1  0  0  0  0
  2  4  1  0  0  0  0
  4  5  1  0  0  0  0
  5  6  2  0  0  0  0
  5  7  1  0  0  0  0
  7  8  1  0  0  0  0
  8  9  1  0  0  0  0
  9 10  1  0  0  0  0
  9 11  1  0  0  0  0
  9 12  1  0  0  0  0
M  END
> <ChemID>
201477

> <CAS>
2372-21-6

> <Original_SMILES>
CC(C)OC(=O)OOC(C)(C)C

> <preferred_name>


> <dsstox_substance_id>
DTXSID00862908

> <dsstox_compound_id>
DTXCID20811610

> <qc_level>


> <Canonical_QSARr>
CC(C)OC(=O)OOC(C)(C)C

> <InChI_Code_QSARr>
InChI=1S/C8H16O4/c1-6(2)10-7(9)11-12-8(3,4)5/h6H,1-5H3

> <InChI Key_QSARr>
KDGNCLDCOVTOCS-UHFFFAOYSA-N

> <Salt_Solvent>


> <Salt_Solvent_ID>
0

> <MPID>
101305

> <Tr_1_Tst_0>
0

> <Ready_Biodeg>
0.0

$$$$
Row1271
  Mrv171c012251911052D          

  7  6  0  0  0  0            999 V2000
   -0.6871   -0.4319    0.0000 C   0  0  0  0  0  0  0  0  0  0  0  0
    0.0274   -0.0194    0.0000 C   0  0  0  0  0  0  0  0  0  0  0  0
    0.0274    0.8056    0.0000 C   0  0  0  0  0  0  0  0  0  0  0  0
    0.7419   -0.4319    0.0000 O   0  0  0  0  0  0  0  0  0  0  0  0
    1.4563   -0.0194    0.0000 C   0  0  0  0  0  0  0  0  0  0  0  0
    2.1708   -0.4319    0.0000 C   0  0  0  0  0  0  0  0  0  0  0  0
    2.8853   -0.0194    0.0000 O   0  0  0  0  0  0  0  0  0  0  0  0
  1  2  1  0  0  0  0
  2  3  1  0  0  0  0
  2  4  1  0  0  0  0
  4  5  1  0  0  0  0
  5  6  1  0  0  0  0
  6  7  1  0  0  0  0
M  END
> <ChemID>
201479

> <CAS>
109-59-1

> <Original_SMILES>
CC(C)OCCO

> <preferred_name>
2-Isopropoxyethanol

> <dsstox_substance_id>
DTXSID4047466

> <dsstox_compound_id>
DTXCID2027466

> <qc_level>


> <Canonical_QSARr>
CC(C)OCCO

> <InChI_Code_QSARr>
InChI=1S/C5H12O2/c1-5(2)7-4-3-6/h5-6H,3-4H2,1-2H3

> <InChI Key_QSARr>
HCGFUIQPSOCUHI-UHFFFAOYSA-N

> <Salt_Solvent>


> <Salt_Solvent_ID>
0

> <MPID>
101306

> <Tr_1_Tst_0>
1

> <Ready_Biodeg>
0.0

$$$$
Row1272
  Mrv171c012251911052D          

 22 23  0  0  0  0            999 V2000
    0.6374   -1.9199    0.0000 C   0  0  0  0  0  0  0  0  0  0  0  0
   -0.1831   -2.0061    0.0000 C   0  0  0  0  0  0  0  0  0  0  0  0
   -0.5186   -2.7598    0.0000 C   0  0  0  0  0  0  0  0  0  0  0  0
   -0.6680   -1.3387    0.0000 O   0  0  0  0  0  0  0  0  0  0  0  0
   -1.4885   -1.4249    0.0000 C   0  0  0  0  0  0  0  0  0  0  0  0
   -1.9734   -0.7575    0.0000 C   0  0  0  0  0  0  0  0  0  0  0  0
   -2.7939   -0.8437    0.0000 C   0  0  0  0  0  0  0  0  0  0  0  0
   -3.2788   -0.1763    0.0000 N   0  0  0  0  0  0  0  0  0  0  0  0
   -3.0239    0.6083    0.0000 N   0  0  0  0  0  0  0  0  0  0  0  0
   -3.6913    1.0933    0.0000 C   0  0  0  0  0  0  0  0  0  0  0  0
   -3.6913    1.9183    0.0000 C   0  0  0  0  0  0  0  0  0  0  0  0
   -3.6913    2.7433    0.0000 C   0  0  0  0  0  0  0  0  0  0  0  0
   -2.8663    1.9183    0.0000 C   0  0  0  0  0  0  0  0  0  0  0  0
   -4.5163    1.9183    0.0000 C   0  0  0  0  0  0  0  0  0  0  0  0
   -4.3587    0.6083    0.0000 O   0  0  0  0  0  0  0  0  0  0  0  0
   -4.1038   -0.1763    0.0000 C   0  0  0  0  0  0  0  0  0  0  0  0
   -4.5887   -0.8437    0.0000 O   0  0  0  0  0  0  0  0  0  0  0  0
   -3.1294   -1.5974    0.0000 C   0  0  0  0  0  0  0  0  0  0  0  0
   -3.9499   -1.6836    0.0000 Cl  0  0  0  0  0  0  0  0  0  0  0  0
   -2.6445   -2.2648    0.0000 C   0  0  0  0  0  0  0  0  0  0  0  0
   -1.8240   -2.1786    0.0000 C   0  0  0  0  0  0  0  0  0  0  0  0
   -1.3391   -2.8460    0.0000 Cl  0  0  0  0  0  0  0  0  0  0  0  0
  1  2  1  0  0  0  0
  2  3  1  0  0  0  0
  2  4  1  0  0  0  0
  4  5  1  0  0  0  0
  6  5  2  0  0  0  0
  7  6  1  0  0  0  0
  7  8  1  0  0  0  0
  9  8  1  0  0  0  0
 10  9  2  0  0  0  0
 10 11  1  0  0  0  0
 11 12  1  0  0  0  0
 11 13  1  0  0  0  0
 11 14  1  0  0  0  0
 15 10  1  0  0  0  0
 16 15  1  0  0  0  0
  8 16  1  0  0  0  0
 16 17  2  0  0  0  0
 18  7  2  0  0  0  0
 18 19  1  0  0  0  0
 20 18  1  0  0  0  0
 21 20  2  0  0  0  0
  5 21  1  0  0  0  0
 21 22  1  0  0  0  0
M  END
> <ChemID>
201481

> <CAS>
19666-30-9

> <Original_SMILES>
CC(C)Oc1cc(c(Cl)cc1Cl)N1N=C(OC1=O)C(C)(C)C

> <preferred_name>
Oxadiazon

> <dsstox_substance_id>
DTXSID3024239

> <dsstox_compound_id>
DTXCID304239

> <qc_level>


> <Canonical_QSARr>
CC(C)OC1=CC(=C(Cl)C=C1Cl)N1N=C(OC1=O)C(C)(C)C

> <InChI_Code_QSARr>
InChI=1S/C15H18Cl2N2O3/c1-8(2)21-12-7-11(9(16)6-10(12)17)19-14(20)22-13(18-19)15(3,4)5/h6-8H,1-5H3

> <InChI Key_QSARr>
CHNUNORXWHYHNE-UHFFFAOYSA-N

> <Salt_Solvent>


> <Salt_Solvent_ID>
0

> <MPID>
101307

> <Tr_1_Tst_0>
1

> <Ready_Biodeg>
0.0

$$$$
Row1273
  Mrv171c012251911052D          

 11 11  0  0  0  0            999 V2000
   -2.1165   -1.8594    0.0000 C   0  0  0  0  0  0  0  0  0  0  0  0
   -1.4021   -1.4469    0.0000 C   0  0  0  0  0  0  0  0  0  0  0  0
   -0.6876   -1.8594    0.0000 C   0  0  0  0  0  0  0  0  0  0  0  0
   -1.4021   -0.6219    0.0000 C   0  0  0  0  0  0  0  0  0  0  0  0
   -0.6876   -0.2094    0.0000 C   0  0  0  0  0  0  0  0  0  0  0  0
   -0.6876    0.6156    0.0000 C   0  0  0  0  0  0  0  0  0  0  0  0
   -1.4021    1.0281    0.0000 C   0  0  0  0  0  0  0  0  0  0  0  0
   -1.4021    1.8531    0.0000 C   0  0  0  0  0  0  0  0  0  0  0  0
   -2.1165    2.2656    0.0000 O   0  0  0  0  0  0  0  0  0  0  0  0
   -2.1165    0.6156    0.0000 C   0  0  0  0  0  0  0  0  0  0  0  0
   -2.1165   -0.2094    0.0000 C   0  0  0  0  0  0  0  0  0  0  0  0
  1  2  1  0  0  0  0
  2  3  1  0  0  0  0
  2  4  1  0  0  0  0
  5  4  2  0  0  0  0
  6  5  1  0  0  0  0
  7  6  2  0  0  0  0
  7  8  1  0  0  0  0
  8  9  2  0  0  0  0
 10  7  1  0  0  0  0
 11 10  2  0  0  0  0
  4 11  1  0  0  0  0
M  END
> <ChemID>
201482

> <CAS>
122-03-2

> <Original_SMILES>
CC(C)c1ccc(C=O)cc1

> <preferred_name>
4-Isopropylbenzaldehyde

> <dsstox_substance_id>
DTXSID9021974

> <dsstox_compound_id>
DTXCID601974

> <qc_level>


> <Canonical_QSARr>
CC(C)C1C=CC(C=O)=CC=1

> <InChI_Code_QSARr>
InChI=1S/C10H12O/c1-8(2)10-5-3-9(7-11)4-6-10/h3-8H,1-2H3

> <InChI Key_QSARr>
WTWBUQJHJGUZCY-UHFFFAOYSA-N

> <Salt_Solvent>


> <Salt_Solvent_ID>
0

> <MPID>
101308

> <Tr_1_Tst_0>
0

> <Ready_Biodeg>
1.0

$$$$
Row1274
  Mrv171c012251911052D          

 10 10  0  0  0  0            999 V2000
   -1.9569   -1.7043    0.0000 C   0  0  0  0  0  0  0  0  0  0  0  0
   -1.2425   -1.2918    0.0000 C   0  0  0  0  0  0  0  0  0  0  0  0
   -0.5280   -1.7043    0.0000 C   0  0  0  0  0  0  0  0  0  0  0  0
   -1.2425   -0.4668    0.0000 C   0  0  0  0  0  0  0  0  0  0  0  0
   -0.5280   -0.0543    0.0000 C   0  0  0  0  0  0  0  0  0  0  0  0
   -0.5280    0.7707    0.0000 C   0  0  0  0  0  0  0  0  0  0  0  0
   -1.2425    1.1832    0.0000 C   0  0  0  0  0  0  0  0  0  0  0  0
   -1.2425    2.0082    0.0000 N   0  0  0  0  0  0  0  0  0  0  0  0
   -1.9569    0.7707    0.0000 C   0  0  0  0  0  0  0  0  0  0  0  0
   -1.9569   -0.0543    0.0000 C   0  0  0  0  0  0  0  0  0  0  0  0
  1  2  1  0  0  0  0
  2  3  1  0  0  0  0
  2  4  1  0  0  0  0
  5  4  2  0  0  0  0
  6  5  1  0  0  0  0
  7  6  2  0  0  0  0
  7  8  1  0  0  0  0
  9  7  1  0  0  0  0
 10  9  2  0  0  0  0
  4 10  1  0  0  0  0
M  END
> <ChemID>
201483

> <CAS>
99-88-7

> <Original_SMILES>
CC(C)c1ccc(N)cc1

> <preferred_name>
Cumidine

> <dsstox_substance_id>
DTXSID20243932

> <dsstox_compound_id>
DTXCID50166423

> <qc_level>


> <Canonical_QSARr>
CC(C)C1C=CC(N)=CC=1

> <InChI_Code_QSARr>
InChI=1S/C9H13N/c1-7(2)8-3-5-9(10)6-4-8/h3-7H,10H2,1-2H3

> <InChI Key_QSARr>
LRTFPLFDLJYEKT-UHFFFAOYSA-N

> <Salt_Solvent>


> <Salt_Solvent_ID>
0

> <MPID>
101309

> <Tr_1_Tst_0>
1

> <Ready_Biodeg>
0.0

$$$$
Row1275
  Mrv171c012251911052D          

 32 34  0  0  0  0            999 V2000
   -1.1466   -6.7172    0.0000 C   0  0  0  0  0  0  0  0  0  0  0  0
   -0.4321   -6.3047    0.0000 C   0  0  0  0  0  0  0  0  0  0  0  0
    0.2823   -6.7172    0.0000 C   0  0  0  0  0  0  0  0  0  0  0  0
   -0.4321   -5.4797    0.0000 C   0  0  0  0  0  0  0  0  0  0  0  0
    0.2823   -5.0672    0.0000 C   0  0  0  0  0  0  0  0  0  0  0  0
    0.2823   -4.2422    0.0000 C   0  0  0  0  0  0  0  0  0  0  0  0
   -0.4321   -3.8297    0.0000 C   0  0  0  0  0  0  0  0  0  0  0  0
   -0.4321   -3.0047    0.0000 O   0  0  0  0  0  0  0  0  0  0  0  0
    0.2823   -2.5922    0.0000 P   0  0  0  0  0  0  0  0  0  0  0  0
    0.6948   -3.3067    0.0000 O   0  0  0  0  0  0  0  0  0  0  0  0
    0.9968   -2.1797    0.0000 O   0  0  0  0  0  0  0  0  0  0  0  0
    1.7113   -2.5922    0.0000 C   0  0  0  0  0  0  0  0  0  0  0  0
    1.7113   -3.4172    0.0000 C   0  0  0  0  0  0  0  0  0  0  0  0
    2.4257   -3.8297    0.0000 C   0  0  0  0  0  0  0  0  0  0  0  0
    3.1402   -3.4172    0.0000 C   0  0  0  0  0  0  0  0  0  0  0  0
    3.8547   -3.8297    0.0000 C   0  0  0  0  0  0  0  0  0  0  0  0
    4.5692   -3.4172    0.0000 C   0  0  0  0  0  0  0  0  0  0  0  0
    3.8547   -4.6547    0.0000 C   0  0  0  0  0  0  0  0  0  0  0  0
    3.1402   -2.5922    0.0000 C   0  0  0  0  0  0  0  0  0  0  0  0
    2.4257   -2.1797    0.0000 C   0  0  0  0  0  0  0  0  0  0  0  0
   -0.1302   -1.8777    0.0000 O   0  0  0  0  0  0  0  0  0  0  0  0
    0.2823   -1.1633    0.0000 C   0  0  0  0  0  0  0  0  0  0  0  0
    1.1073   -1.1633    0.0000 C   0  0  0  0  0  0  0  0  0  0  0  0
    1.5198   -0.4488    0.0000 C   0  0  0  0  0  0  0  0  0  0  0  0
    1.1073    0.2657    0.0000 C   0  0  0  0  0  0  0  0  0  0  0  0
    1.5198    0.9802    0.0000 C   0  0  0  0  0  0  0  0  0  0  0  0
    1.1073    1.6946    0.0000 C   0  0  0  0  0  0  0  0  0  0  0  0
    2.3448    0.9802    0.0000 C   0  0  0  0  0  0  0  0  0  0  0  0
    0.2823    0.2657    0.0000 C   0  0  0  0  0  0  0  0  0  0  0  0
   -0.1302   -0.4488    0.0000 C   0  0  0  0  0  0  0  0  0  0  0  0
   -1.1466   -4.2422    0.0000 C   0  0  0  0  0  0  0  0  0  0  0  0
   -1.1466   -5.0672    0.0000 C   0  0  0  0  0  0  0  0  0  0  0  0
  1  2  1  0  0  0  0
  2  3  1  0  0  0  0
  2  4  1  0  0  0  0
  5  4  2  0  0  0  0
  6  5  1  0  0  0  0
  7  6  2  0  0  0  0
  7  8  1  0  0  0  0
  8  9  1  0  0  0  0
  9 10  2  0  0  0  0
  9 11  1  0  0  0  0
 11 12  1  0  0  0  0
 13 12  2  0  0  0  0
 14 13  1  0  0  0  0
 15 14  2  0  0  0  0
 15 16  1  0  0  0  0
 16 17  1  0  0  0  0
 16 18  1  0  0  0  0
 19 15  1  0  0  0  0
 20 19  2  0  0  0  0
 12 20  1  0  0  0  0
  9 21  1  0  0  0  0
 21 22  1  0  0  0  0
 23 22  2  0  0  0  0
 24 23  1  0  0  0  0
 25 24  2  0  0  0  0
 25 26  1  0  0  0  0
 26 27  1  0  0  0  0
 26 28  1  0  0  0  0
 29 25  1  0  0  0  0
 30 29  2  0  0  0  0
 22 30  1  0  0  0  0
 31  7  1  0  0  0  0
 32 31  2  0  0  0  0
  4 32  1  0  0  0  0
M  END
> <ChemID>
201485

> <CAS>
2502-15-0

> <Original_SMILES>
CC(C)c1ccc(cc1)OP(=O)(Oc1ccc(cc1)C(C)C)Oc1ccc(cc1)C(C)C

> <preferred_name>


> <dsstox_substance_id>
DTXSID80858783

> <dsstox_compound_id>
DTXCID808880

> <qc_level>


> <Canonical_QSARr>
CC(C)C1C=CC(=CC=1)OP(=O)(OC1C=CC(=CC=1)C(C)C)OC1C=CC(=CC=1)C(C)C

> <InChI_Code_QSARr>
InChI=1S/C27H33O4P/c1-19(2)22-7-13-25(14-8-22)29-32(28,30-26-15-9-23(10-16-26)20(3)4)31-27-17-11-24(12-18-27)21(5)6/h7-21H,1-6H3

> <InChI Key_QSARr>
ANVREEJNGJMLOV-UHFFFAOYSA-N

> <Salt_Solvent>


> <Salt_Solvent_ID>
0

> <MPID>
101310

> <Tr_1_Tst_0>
1

> <Ready_Biodeg>
0.0

$$$$
Row1276
  Mrv171c012251911052D          

 13 13  0  0  0  0            999 V2000
   -2.3554   -2.2734    0.0000 C   0  0  0  0  0  0  0  0  0  0  0  0
   -2.3554   -1.4484    0.0000 C   0  0  0  0  0  0  0  0  0  0  0  0
   -3.0699   -1.0359    0.0000 C   0  0  0  0  0  0  0  0  0  0  0  0
   -1.6409   -1.0359    0.0000 C   0  0  0  0  0  0  0  0  0  0  0  0
   -0.9264   -1.4484    0.0000 C   0  0  0  0  0  0  0  0  0  0  0  0
   -0.2120   -1.0359    0.0000 C   0  0  0  0  0  0  0  0  0  0  0  0
   -0.2120   -0.2109    0.0000 C   0  0  0  0  0  0  0  0  0  0  0  0
   -0.9264    0.2016    0.0000 C   0  0  0  0  0  0  0  0  0  0  0  0
   -0.9264    1.0266    0.0000 C   0  0  0  0  0  0  0  0  0  0  0  0
   -1.6409    1.4391    0.0000 C   0  0  0  0  0  0  0  0  0  0  0  0
   -0.2120    1.4391    0.0000 C   0  0  0  0  0  0  0  0  0  0  0  0
   -1.6409   -0.2109    0.0000 C   0  0  0  0  0  0  0  0  0  0  0  0
   -2.3554    0.2016    0.0000 O   0  0  0  0  0  0  0  0  0  0  0  0
  1  2  1  0  0  0  0
  2  3  1  0  0  0  0
  2  4  1  0  0  0  0
  5  4  2  0  0  0  0
  6  5  1  0  0  0  0
  7  6  2  0  0  0  0
  8  7  1  0  0  0  0
  8  9  1  0  0  0  0
  9 10  1  0  0  0  0
  9 11  1  0  0  0  0
 12  8  2  0  0  0  0
  4 12  1  0  0  0  0
 12 13  1  0  0  0  0
M  END
> <ChemID>
201486

> <CAS>
2078-54-8

> <Original_SMILES>
CC(C)c1cccc(C(C)C)c1O

> <preferred_name>
Propofol

> <dsstox_substance_id>
DTXSID6023523

> <dsstox_compound_id>
DTXCID103523

> <qc_level>


> <Canonical_QSARr>
CC(C)C1=CC=CC(C(C)C)=C1O

> <InChI_Code_QSARr>
InChI=1S/C12H18O/c1-8(2)10-6-5-7-11(9(3)4)12(10)13/h5-9,13H,1-4H3

> <InChI Key_QSARr>
OLBCVFGFOZPWHH-UHFFFAOYSA-N

> <Salt_Solvent>


> <Salt_Solvent_ID>
0

> <MPID>
101311

> <Tr_1_Tst_0>
0

> <Ready_Biodeg>
0.0

$$$$
Row1277
  Mrv171c012251911052D          

  9  8  0  0  0  0            999 V2000
   -1.4290   -0.1947    0.0000 C   0  0  0  0  0  0  0  0  0  0  0  0
   -0.7145   -0.6072    0.0000 C   0  0  0  0  0  0  0  0  0  0  0  0
   -0.0000   -0.1947    0.0000 C   0  0  0  0  0  0  0  0  0  0  0  0
   -0.0000    0.6303    0.0000 C   0  0  0  0  0  0  0  0  0  0  0  0
    0.7145   -0.6072    0.0000 N   0  0  0  0  0  0  0  0  0  0  0  0
    1.4289   -0.1947    0.0000 C   0  0  0  0  0  0  0  0  0  0  0  0
    1.4289    0.6303    0.0000 C   0  0  0  0  0  0  0  0  0  0  0  0
    2.1434   -0.6072    0.0000 C   0  0  0  0  0  0  0  0  0  0  0  0
    2.8579   -0.1947    0.0000 C   0  0  0  0  0  0  0  0  0  0  0  0
  1  2  1  0  0  0  0
  2  3  1  0  0  0  0
  3  4  1  0  0  0  0
  3  5  1  0  0  0  0
  5  6  1  0  0  0  0
  6  7  1  0  0  0  0
  6  8  1  0  0  0  0
  8  9  1  0  0  0  0
M  END
> <ChemID>
201488

> <CAS>
626-23-3

> <Original_SMILES>
CC(CC)NC(C)CC

> <preferred_name>


> <dsstox_substance_id>
DTXSID90870719

> <dsstox_compound_id>
DTXCID50818415

> <qc_level>


> <Canonical_QSARr>
CC(CC)NC(C)CC

> <InChI_Code_QSARr>
InChI=1S/C8H19N/c1-5-7(3)9-8(4)6-2/h7-9H,5-6H2,1-4H3

> <InChI Key_QSARr>
OBYVIBDTOCAXSN-UHFFFAOYSA-N

> <Salt_Solvent>


> <Salt_Solvent_ID>
0

> <MPID>
101312

> <Tr_1_Tst_0>
1

> <Ready_Biodeg>
0.0

$$$$
Row1278
  Mrv171c012251911052D          

 15 16  0  0  0  0            999 V2000
   -1.0229    3.5654    0.0000 C   0  0  0  0  0  0  0  0  0  0  0  0
   -1.0229    2.7404    0.0000 C   0  0  0  0  0  0  0  0  0  0  0  0
   -1.7374    2.3279    0.0000 C   0  0  0  0  0  0  0  0  0  0  0  0
   -2.4519    2.7404    0.0000 C   0  0  0  0  0  0  0  0  0  0  0  0
   -1.7374    1.5029    0.0000 C   0  0  0  0  0  0  0  0  0  0  0  0
   -2.4519    1.0904    0.0000 C   0  0  0  0  0  0  0  0  0  0  0  0
   -2.4519    0.2654    0.0000 C   0  0  0  0  0  0  0  0  0  0  0  0
   -1.7374   -0.1471    0.0000 C   0  0  0  0  0  0  0  0  0  0  0  0
   -1.7374   -0.9721    0.0000 O   0  0  0  0  0  0  0  0  0  0  0  0
   -2.4519   -1.3846    0.0000 C   0  0  0  0  0  0  0  0  0  0  0  0
   -2.4519   -2.2096    0.0000 C   0  0  0  0  0  0  0  0  0  0  0  0
   -2.8644   -2.9240    0.0000 C   0  0  0  0  0  0  0  0  0  0  0  0
   -2.0394   -2.9240    0.0000 O   0  0  0  0  0  0  0  0  0  0  0  0
   -1.0229    0.2654    0.0000 C   0  0  0  0  0  0  0  0  0  0  0  0
   -1.0229    1.0904    0.0000 C   0  0  0  0  0  0  0  0  0  0  0  0
  1  2  1  0  0  0  0
  2  3  1  0  0  0  0
  3  4  1  0  0  0  0
  3  5  1  0  0  0  0
  6  5  2  0  0  0  0
  7  6  1  0  0  0  0
  8  7  2  0  0  0  0
  8  9  1  0  0  0  0
  9 10  1  0  0  0  0
 10 11  1  0  0  0  0
 12 11  1  0  0  0  0
 13 12  1  0  0  0  0
 11 13  1  0  0  0  0
 14  8  1  0  0  0  0
 15 14  2  0  0  0  0
  5 15  1  0  0  0  0
M  END
> <ChemID>
201489

> <CAS>
67557-76-0

> <Original_SMILES>
CC(CC)c1ccc(cc1)OCC1CO1

> <preferred_name>


> <dsstox_substance_id>


> <dsstox_compound_id>


> <qc_level>


> <Canonical_QSARr>
CC(CC)C1=CC=C(C=C1)OCC1CO1

> <InChI_Code_QSARr>
InChI=1S/C13H18O2/c1-3-10(2)11-4-6-12(7-5-11)14-8-13-9-15-13/h4-7,10,13H,3,8-9H2,1-2H3

> <InChI Key_QSARr>
GQTBMBMBWQJACJ-UHFFFAOYSA-N

> <Salt_Solvent>


> <Salt_Solvent_ID>
0

> <MPID>
101313

> <Tr_1_Tst_0>
1

> <Ready_Biodeg>
0.0

$$$$
Row1279
  Mrv171c012251911052D          

 10  9  0  0  0  0            999 V2000
    0.4296    0.1289    0.0000 C   0  0  0  0  0  0  0  0  0  0  0  0
    1.1441   -0.2836    0.0000 C   0  0  0  0  0  0  0  0  0  0  0  0
    1.1441   -1.1086    0.0000 C   0  0  0  0  0  0  0  0  0  0  0  0
    0.4296   -1.5211    0.0000 C   0  0  0  0  0  0  0  0  0  0  0  0
    0.4296   -2.3461    0.0000 O   0  0  0  0  0  0  0  0  0  0  0  0
    1.8586    0.1289    0.0000 C   0  0  0  0  0  0  0  0  0  0  0  0
    1.8586    0.9539    0.0000 C   0  0  0  0  0  0  0  0  0  0  0  0
    1.8586    1.7789    0.0000 C   0  0  0  0  0  0  0  0  0  0  0  0
    2.6836    0.9539    0.0000 C   0  0  0  0  0  0  0  0  0  0  0  0
    1.0336    0.9539    0.0000 C   0  0  0  0  0  0  0  0  0  0  0  0
  1  2  1  0  0  0  0
  2  3  1  0  0  0  0
  3  4  1  0  0  0  0
  4  5  2  0  0  0  0
  2  6  1  0  0  0  0
  6  7  1  0  0  0  0
  7  8  1  0  0  0  0
  7  9  1  0  0  0  0
  7 10  1  0  0  0  0
M  END
> <ChemID>
201490

> <CAS>
5435-64-3

> <Original_SMILES>
CC(CC=O)CC(C)(C)C

> <preferred_name>
3,5,5-Trimethylhexanal

> <dsstox_substance_id>
DTXSID6047107

> <dsstox_compound_id>
DTXCID4027107

> <qc_level>


> <Canonical_QSARr>
CC(CC=O)CC(C)(C)C

> <InChI_Code_QSARr>
InChI=1S/C9H18O/c1-8(5-6-10)7-9(2,3)4/h6,8H,5,7H2,1-4H3

> <InChI Key_QSARr>
WTPYRCJDOZVZON-UHFFFAOYSA-N

> <Salt_Solvent>


> <Salt_Solvent_ID>
0

> <MPID>
101314

> <Tr_1_Tst_0>
0

> <Ready_Biodeg>
0.0

$$$$
Row1280
  Mrv171c012251911052D          

 10  9  0  0  0  0            999 V2000
    0.4328    0.2518    0.0000 C   0  0  0  0  0  0  0  0  0  0  0  0
    1.1473   -0.1607    0.0000 C   0  0  0  0  0  0  0  0  0  0  0  0
    1.1473   -0.9857    0.0000 C   0  0  0  0  0  0  0  0  0  0  0  0
    0.4328   -1.3982    0.0000 C   0  0  0  0  0  0  0  0  0  0  0  0
    0.4328   -2.2232    0.0000 O   0  0  0  0  0  0  0  0  0  0  0  0
    1.8617    0.2518    0.0000 C   0  0  0  0  0  0  0  0  0  0  0  0
    1.8617    1.0768    0.0000 C   0  0  0  0  0  0  0  0  0  0  0  0
    1.8617    1.9018    0.0000 C   0  0  0  0  0  0  0  0  0  0  0  0
    2.6867    1.0768    0.0000 C   0  0  0  0  0  0  0  0  0  0  0  0
    1.0367    1.0768    0.0000 C   0  0  0  0  0  0  0  0  0  0  0  0
  1  2  1  0  0  0  0
  2  3  1  0  0  0  0
  3  4  1  0  0  0  0
  4  5  1  0  0  0  0
  2  6  1  0  0  0  0
  6  7  1  0  0  0  0
  7  8  1  0  0  0  0
  7  9  1  0  0  0  0
  7 10  1  0  0  0  0
M  END
> <ChemID>
201491

> <CAS>
3452-97-9

> <Original_SMILES>
CC(CCO)CC(C)(C)C

> <preferred_name>
3,5,5-Trimethyl-1-hexanol

> <dsstox_substance_id>
DTXSID7029661

> <dsstox_compound_id>
DTXCID309661

> <qc_level>


> <Canonical_QSARr>
CC(CCO)CC(C)(C)C

> <InChI_Code_QSARr>
InChI=1S/C9H20O/c1-8(5-6-10)7-9(2,3)4/h8,10H,5-7H2,1-4H3

> <InChI Key_QSARr>
BODRLKRKPXBDBN-UHFFFAOYSA-N

> <Salt_Solvent>


> <Salt_Solvent_ID>
0

> <MPID>
101315

> <Tr_1_Tst_0>
1

> <Ready_Biodeg>
0.0

$$$$
Row1281
  Mrv171c012251911052D          

  8  7  0  0  0  0            999 V2000
    0.0000   -1.0399    0.0000 C   0  0  0  0  0  0  0  0  0  0  0  0
    0.0000   -0.2149    0.0000 C   0  0  0  0  0  0  0  0  0  0  0  0
   -0.7145    0.1976    0.0000 C   0  0  0  0  0  0  0  0  0  0  0  0
   -1.4289   -0.2149    0.0000 C   0  0  0  0  0  0  0  0  0  0  0  0
   -2.1434    0.1976    0.0000 O   0  0  0  0  0  0  0  0  0  0  0  0
    0.7145    0.1976    0.0000 C   0  0  0  0  0  0  0  0  0  0  0  0
    1.4290   -0.2149    0.0000 C   0  0  0  0  0  0  0  0  0  0  0  0
    2.1434    0.1976    0.0000 O   0  0  0  0  0  0  0  0  0  0  0  0
  1  2  1  0  0  0  0
  2  3  1  0  0  0  0
  3  4  1  0  0  0  0
  4  5  1  0  0  0  0
  2  6  1  0  0  0  0
  6  7  1  0  0  0  0
  7  8  1  0  0  0  0
M  END
> <ChemID>
201492

> <CAS>
4457-71-0

> <Original_SMILES>
CC(CCO)CCO

> <preferred_name>
3-Methyl-1,5-pentanediol

> <dsstox_substance_id>
DTXSID1063483

> <dsstox_compound_id>
DTXCID9040342

> <qc_level>


> <Canonical_QSARr>
CC(CCO)CCO

> <InChI_Code_QSARr>
InChI=1S/C6H14O2/c1-6(2-4-7)3-5-8/h6-8H,2-5H2,1H3

> <InChI Key_QSARr>
SXFJDZNJHVPHPH-UHFFFAOYSA-N

> <Salt_Solvent>


> <Salt_Solvent_ID>
0

> <MPID>
101316

> <Tr_1_Tst_0>
1

> <Ready_Biodeg>
1.0

$$$$
Row1282
  Mrv171c012251911052D          

  8  7  0  0  0  0            999 V2000
    0.6386    0.8450    0.0000 C   0  0  0  0  0  0  0  0  0  0  0  0
    0.2261    0.1306    0.0000 C   0  0  0  0  0  0  0  0  0  0  0  0
   -0.4883    0.5431    0.0000 C   0  0  0  0  0  0  0  0  0  0  0  0
   -1.2028    0.1306    0.0000 O   0  0  0  0  0  0  0  0  0  0  0  0
    0.9406   -0.2819    0.0000 C   0  0  0  0  0  0  0  0  0  0  0  0
    1.6551    0.1306    0.0000 O   0  0  0  0  0  0  0  0  0  0  0  0
   -0.1864   -0.5839    0.0000 C   0  0  0  0  0  0  0  0  0  0  0  0
   -1.0114   -0.5839    0.0000 O   0  0  0  0  0  0  0  0  0  0  0  0
  1  2  1  0  0  0  0
  2  3  1  0  0  0  0
  3  4  1  0  0  0  0
  2  5  1  0  0  0  0
  5  6  1  0  0  0  0
  2  7  1  0  0  0  0
  7  8  1  0  0  0  0
M  END
> <ChemID>
201494

> <CAS>
77-85-0

> <Original_SMILES>
CC(CO)(CO)CO

> <preferred_name>
2-(Hydroxymethyl)-2-methyl-1,3-propanediol

> <dsstox_substance_id>
DTXSID2026444

> <dsstox_compound_id>
DTXCID206444

> <qc_level>


> <Canonical_QSARr>
CC(CO)(CO)CO

> <InChI_Code_QSARr>
InChI=1S/C5H12O3/c1-5(2-6,3-7)4-8/h6-8H,2-4H2,1H3

> <InChI Key_QSARr>
QXJQHYBHAIHNGG-UHFFFAOYSA-N

> <Salt_Solvent>


> <Salt_Solvent_ID>
0

> <MPID>
101317

> <Tr_1_Tst_0>
0

> <Ready_Biodeg>
0.0

$$$$
Row1283
  Mrv171c012251911052D          

  4  3  0  0  0  0            999 V2000
    1.1270    0.3020    0.0000 C   0  0  0  0  0  0  0  0  0  0  0  0
    0.7145   -0.4125    0.0000 C   0  0  0  0  0  0  0  0  0  0  0  0
    1.1270   -1.1270    0.0000 N   0  0  0  0  0  0  0  0  0  0  0  0
   -0.1105   -0.4125    0.0000 S   0  0  0  0  0  0  0  0  0  0  0  0
  1  2  1  0  0  0  0
  2  3  1  0  0  0  0
  2  4  2  0  0  0  0
M  END
> <ChemID>
201498

> <CAS>
62-55-5

> <Original_SMILES>
CC(N)=S

> <preferred_name>
Thioacetamide

> <dsstox_substance_id>
DTXSID9021340

> <dsstox_compound_id>
DTXCID901340

> <qc_level>


> <Canonical_QSARr>
CC(N)=S

> <InChI_Code_QSARr>
InChI=1S/C2H5NS/c1-2(3)4/h1H3,(H2,3,4)

> <InChI Key_QSARr>
YUKQRDCYNOVPGJ-UHFFFAOYSA-N

> <Salt_Solvent>


> <Salt_Solvent_ID>
0

> <MPID>
101318

> <Tr_1_Tst_0>
0

> <Ready_Biodeg>
0.0

$$$$
Row1284
  Mrv171c012251911052D          

 20 19  0  0  0  0            999 V2000
    1.1025    1.7930    0.0000 C   0  0  0  0  0  0  0  0  0  0  0  0
    1.9126    1.9489    0.0000 C   0  0  0  0  0  0  0  0  0  0  0  0
    2.1827    2.7284    0.0000 O   0  0  0  0  0  0  0  0  0  0  0  0
    2.4527    1.3252    0.0000 C   0  0  0  0  0  0  0  0  0  0  0  0
    2.1827    0.5457    0.0000 N   0  0  0  0  0  0  0  0  0  0  0  0
    1.3725    0.3898    0.0000 C   0  0  0  0  0  0  0  0  0  0  0  0
    1.1025   -0.3898    0.0000 C   0  0  0  0  0  0  0  0  0  0  0  0
    0.2923   -0.5457    0.0000 N   0  0  0  0  0  0  0  0  0  0  0  0
    0.0223   -1.3252    0.0000 C   0  0  0  0  0  0  0  0  0  0  0  0
    0.5624   -1.9489    0.0000 C   0  0  0  0  0  0  0  0  0  0  0  0
    1.3725   -1.7930    0.0000 C   0  0  0  0  0  0  0  0  0  0  0  0
    0.2923   -2.7284    0.0000 O   0  0  0  0  0  0  0  0  0  0  0  0
   -0.2477    0.0779    0.0000 C   0  0  0  0  0  0  0  0  0  0  0  0
   -1.0579   -0.0780    0.0000 C   0  0  0  0  0  0  0  0  0  0  0  0
   -1.5980    0.5457    0.0000 C   0  0  0  0  0  0  0  0  0  0  0  0
   -1.3279   -0.8575    0.0000 O   0  0  0  0  0  0  0  0  0  0  0  0
    2.7227   -0.0780    0.0000 C   0  0  0  0  0  0  0  0  0  0  0  0
    3.5329    0.0779    0.0000 C   0  0  0  0  0  0  0  0  0  0  0  0
    3.8029    0.8575    0.0000 C   0  0  0  0  0  0  0  0  0  0  0  0
    4.0730   -0.5457    0.0000 O   0  0  0  0  0  0  0  0  0  0  0  0
  1  2  1  0  0  0  0
  2  3  1  0  0  0  0
  2  4  1  0  0  0  0
  4  5  1  0  0  0  0
  5  6  1  0  0  0  0
  6  7  1  0  0  0  0
  7  8  1  0  0  0  0
  8  9  1  0  0  0  0
  9 10  1  0  0  0  0
 10 11  1  0  0  0  0
 10 12  1  0  0  0  0
  8 13  1  0  0  0  0
 13 14  1  0  0  0  0
 14 15  1  0  0  0  0
 14 16  1  0  0  0  0
  5 17  1  0  0  0  0
 17 18  1  0  0  0  0
 18 19  1  0  0  0  0
 18 20  1  0  0  0  0
M  END
> <ChemID>
201501

> <CAS>
102-60-3

> <Original_SMILES>
CC(O)CN(CC(C)O)CCN(CC(C)O)CC(C)O

> <preferred_name>
N,N,N',N'-Tetrakis(2-Hydroxypropyl)ethylenediamine

> <dsstox_substance_id>
DTXSID9026689

> <dsstox_compound_id>
DTXCID806689

> <qc_level>


> <Canonical_QSARr>
CC(O)CN(CC(C)O)CCN(CC(C)O)CC(C)O

> <InChI_Code_QSARr>
InChI=1S/C14H32N2O4/c1-11(17)7-15(8-12(2)18)5-6-16(9-13(3)19)10-14(4)20/h11-14,17-20H,5-10H2,1-4H3

> <InChI Key_QSARr>
NSOXQYCFHDMMGV-UHFFFAOYSA-N

> <Salt_Solvent>


> <Salt_Solvent_ID>
0

> <MPID>
101319

> <Tr_1_Tst_0>
1

> <Ready_Biodeg>
0.0

$$$$
Row1285
  Mrv171c012251911052D          

  9  8  0  0  0  0            999 V2000
   -0.7145    0.6629    0.0000 C   0  0  0  0  0  0  0  0  0  0  0  0
   -0.0001    0.2504    0.0000 C   0  0  0  0  0  0  0  0  0  0  0  0
   -0.0001   -0.5746    0.0000 O   0  0  0  0  0  0  0  0  0  0  0  0
    0.7144    0.6629    0.0000 C   0  0  0  0  0  0  0  0  0  0  0  0
    1.4289    0.2504    0.0000 N   0  0  0  0  0  0  0  0  0  0  0  0
    2.1433    0.6629    0.0000 C   0  0  0  0  0  0  0  0  0  0  0  0
    2.8578    0.2504    0.0000 C   0  0  0  0  0  0  0  0  0  0  0  0
    3.5723    0.6629    0.0000 C   0  0  0  0  0  0  0  0  0  0  0  0
    2.8578   -0.5746    0.0000 O   0  0  0  0  0  0  0  0  0  0  0  0
  1  2  1  0  0  0  0
  2  3  1  0  0  0  0
  2  4  1  0  0  0  0
  4  5  1  0  0  0  0
  5  6  1  0  0  0  0
  6  7  1  0  0  0  0
  7  8  1  0  0  0  0
  7  9  1  0  0  0  0
M  END
> <ChemID>
201502

> <CAS>
110-97-4

> <Original_SMILES>
CC(O)CNCC(C)O

> <preferred_name>
Diisopropanolamine

> <dsstox_substance_id>
DTXSID8020179

> <dsstox_compound_id>
DTXCID20179

> <qc_level>


> <Canonical_QSARr>
CC(O)CNCC(C)O

> <InChI_Code_QSARr>
InChI=1S/C6H15NO2/c1-5(8)3-7-4-6(2)9/h5-9H,3-4H2,1-2H3

> <InChI Key_QSARr>
LVTYICIALWPMFW-UHFFFAOYSA-N

> <Salt_Solvent>


> <Salt_Solvent_ID>
0

> <MPID>
101320

> <Tr_1_Tst_0>
0

> <Ready_Biodeg>
1.0

$$$$
Row1286
  Mrv171c012251911052D          

 13 12  0  0  0  0            999 V2000
   -3.5819   -1.0901    0.0000 C   0  0  0  0  0  0  0  0  0  0  0  0
   -2.8674   -0.6776    0.0000 C   0  0  0  0  0  0  0  0  0  0  0  0
   -2.8674    0.1474    0.0000 O   0  0  0  0  0  0  0  0  0  0  0  0
   -2.1530   -1.0901    0.0000 C   0  0  0  0  0  0  0  0  0  0  0  0
   -1.4385   -0.6776    0.0000 O   0  0  0  0  0  0  0  0  0  0  0  0
   -0.7240   -1.0901    0.0000 C   0  0  0  0  0  0  0  0  0  0  0  0
   -0.7240   -1.9151    0.0000 C   0  0  0  0  0  0  0  0  0  0  0  0
   -0.0096   -0.6776    0.0000 C   0  0  0  0  0  0  0  0  0  0  0  0
    0.7049   -1.0901    0.0000 O   0  0  0  0  0  0  0  0  0  0  0  0
    1.4194   -0.6776    0.0000 C   0  0  0  0  0  0  0  0  0  0  0  0
    1.4194    0.1474    0.0000 C   0  0  0  0  0  0  0  0  0  0  0  0
    2.1339   -1.0901    0.0000 C   0  0  0  0  0  0  0  0  0  0  0  0
    2.8483   -0.6776    0.0000 O   0  0  0  0  0  0  0  0  0  0  0  0
  1  2  1  0  0  0  0
  2  3  1  0  0  0  0
  2  4  1  0  0  0  0
  4  5  1  0  0  0  0
  5  6  1  0  0  0  0
  6  7  1  0  0  0  0
  6  8  1  0  0  0  0
  8  9  1  0  0  0  0
  9 10  1  0  0  0  0
 10 11  1  0  0  0  0
 10 12  1  0  0  0  0
 12 13  1  0  0  0  0
M  END
> <ChemID>
201504

> <CAS>
45096-22-8

> <Original_SMILES>
CC(O)COC(C)COC(C)CO

> <preferred_name>


> <dsstox_substance_id>
DTXSID90871342

> <dsstox_compound_id>
DTXCID40819012

> <qc_level>


> <Canonical_QSARr>
CC(O)COC(C)COC(C)CO

> <InChI_Code_QSARr>
InChI=1S/C9H20O4/c1-7(11)5-12-9(3)6-13-8(2)4-10/h7-11H,4-6H2,1-3H3

> <InChI Key_QSARr>
LCZVSXRMYJUNFX-UHFFFAOYSA-N

> <Salt_Solvent>


> <Salt_Solvent_ID>
0

> <MPID>
101321

> <Tr_1_Tst_0>
1

> <Ready_Biodeg>
0.0

$$$$
Row1287
  Mrv171c012251911052D          

 31 34  0  0  0  0            999 V2000
   -1.8007   -0.8247    0.0000 C   0  0  0  0  0  0  0  0  0  0  0  0
   -1.0863   -1.2372    0.0000 C   0  0  0  0  0  0  0  0  0  0  0  0
   -1.0863   -2.0622    0.0000 C   0  0  0  0  0  0  0  0  0  0  0  0
   -1.8007   -2.4747    0.0000 C   0  0  0  0  0  0  0  0  0  0  0  0
   -1.8007   -3.2997    0.0000 C   0  0  0  0  0  0  0  0  0  0  0  0
   -1.0863   -3.7122    0.0000 C   0  0  0  0  0  0  0  0  0  0  0  0
   -0.3718   -3.2997    0.0000 C   0  0  0  0  0  0  0  0  0  0  0  0
   -0.3718   -2.4747    0.0000 C   0  0  0  0  0  0  0  0  0  0  0  0
   -0.3718   -0.8247    0.0000 C   0  0  0  0  0  0  0  0  0  0  0  0
    0.3427   -1.2372    0.0000 C   0  0  0  0  0  0  0  0  0  0  0  0
    1.0571   -0.8247    0.0000 C   0  0  0  0  0  0  0  0  0  0  0  0
    1.0571    0.0003    0.0000 C   0  0  0  0  0  0  0  0  0  0  0  0
    1.7716    0.4128    0.0000 O   0  0  0  0  0  0  0  0  0  0  0  0
    0.3427    0.4128    0.0000 C   0  0  0  0  0  0  0  0  0  0  0  0
    0.3427    1.2378    0.0000 C   0  0  0  0  0  0  0  0  0  0  0  0
    0.0071    1.9915    0.0000 C   0  0  0  0  0  0  0  0  0  0  0  0
    1.0571    1.6503    0.0000 C   0  0  0  0  0  0  0  0  0  0  0  0
    1.7716    1.2378    0.0000 C   0  0  0  0  0  0  0  0  0  0  0  0
    2.4861    1.6503    0.0000 C   0  0  0  0  0  0  0  0  0  0  0  0
    2.4861    2.4753    0.0000 C   0  0  0  0  0  0  0  0  0  0  0  0
    1.7716    2.8878    0.0000 C   0  0  0  0  0  0  0  0  0  0  0  0
    1.0571    2.4753    0.0000 C   0  0  0  0  0  0  0  0  0  0  0  0
   -0.3718    0.0003    0.0000 C   0  0  0  0  0  0  0  0  0  0  0  0
   -1.0863    0.4128    0.0000 C   0  0  0  0  0  0  0  0  0  0  0  0
   -1.8007    0.0003    0.0000 C   0  0  0  0  0  0  0  0  0  0  0  0
   -1.0863    1.2378    0.0000 C   0  0  0  0  0  0  0  0  0  0  0  0
   -0.3718    1.6503    0.0000 C   0  0  0  0  0  0  0  0  0  0  0  0
   -0.3718    2.4753    0.0000 C   0  0  0  0  0  0  0  0  0  0  0  0
   -1.0863    2.8878    0.0000 C   0  0  0  0  0  0  0  0  0  0  0  0
   -1.8007    2.4753    0.0000 C   0  0  0  0  0  0  0  0  0  0  0  0
   -1.8007    1.6503    0.0000 C   0  0  0  0  0  0  0  0  0  0  0  0
  1  2  1  0  0  0  0
  2  3  1  0  0  0  0
  4  3  2  0  0  0  0
  5  4  1  0  0  0  0
  6  5  2  0  0  0  0
  7  6  1  0  0  0  0
  8  7  2  0  0  0  0
  3  8  1  0  0  0  0
  2  9  1  0  0  0  0
 10  9  2  0  0  0  0
 11 10  1  0  0  0  0
 12 11  2  0  0  0  0
 12 13  1  0  0  0  0
 14 12  1  0  0  0  0
 14 15  1  0  0  0  0
 15 16  1  0  0  0  0
 15 17  1  0  0  0  0
 18 17  2  0  0  0  0
 19 18  1  0  0  0  0
 20 19  2  0  0  0  0
 21 20  1  0  0  0  0
 22 21  2  0  0  0  0
 17 22  1  0  0  0  0
 23 14  2  0  0  0  0
  9 23  1  0  0  0  0
 23 24  1  0  0  0  0
 24 25  1  0  0  0  0
 24 26  1  0  0  0  0
 27 26  2  0  0  0  0
 28 27  1  0  0  0  0
 29 28  2  0  0  0  0
 30 29  1  0  0  0  0
 31 30  2  0  0  0  0
 26 31  1  0  0  0  0
M  END
> <ChemID>
201505

> <CAS>
25640-71-5

> <Original_SMILES>
CC(c1c(C(C)c2ccccc2)c(O)ccc1C(C)c1ccccc1)c1ccccc1

> <preferred_name>


> <dsstox_substance_id>


> <dsstox_compound_id>


> <qc_level>


> <Canonical_QSARr>
CC(C1=C(C(C)C2C=CC=CC=2)C(O)=CC=C1C(C)C1C=CC=CC=1)C1C=CC=CC=1

> <InChI_Code_QSARr>
InChI=1S/C30H30O/c1-21(24-13-7-4-8-14-24)27-19-20-28(31)30(23(3)26-17-11-6-12-18-26)29(27)22(2)25-15-9-5-10-16-25/h4-23,31H,1-3H3

> <InChI Key_QSARr>
SFJOBYZKUSLNIG-UHFFFAOYSA-N

> <Salt_Solvent>


> <Salt_Solvent_ID>
0

> <MPID>
101322

> <Tr_1_Tst_0>
1

> <Ready_Biodeg>
0.0

$$$$
Row1288
  Mrv171c012251911052D          

 11 12  0  0  0  0            999 V2000
   -1.2924    1.1564    0.0000 C   0  0  0  0  0  0  0  0  0  0  0  0
   -0.6311    0.2889    0.0000 C   0  0  0  0  0  0  0  0  0  0  0  0
   -1.3014   -0.5481    0.0000 C   0  0  0  0  0  0  0  0  0  0  0  0
   -0.8373    1.1139    0.0000 C   0  0  0  0  0  0  0  0  0  0  0  0
   -1.5518    0.7014    0.0000 C   0  0  0  0  0  0  0  0  0  0  0  0
   -1.5518   -0.1236    0.0000 C   0  0  0  0  0  0  0  0  0  0  0  0
   -0.8373   -0.5361    0.0000 C   0  0  0  0  0  0  0  0  0  0  0  0
   -0.7678   -1.4135    0.0000 C   0  0  0  0  0  0  0  0  0  0  0  0
   -0.1229   -0.1236    0.0000 C   0  0  0  0  0  0  0  0  0  0  0  0
    0.6324   -0.5364    0.0000 O   0  0  0  0  0  0  0  0  0  0  0  0
   -0.1229    0.7014    0.0000 C   0  0  0  0  0  0  0  0  0  0  0  0
  1  2  1  0  0  0  0
  2  3  1  0  0  0  0
  4  2  1  0  0  0  0
  4  5  1  0  0  0  0
  5  6  1  0  0  0  0
  6  7  1  0  0  0  0
  2  7  1  0  0  0  0
  7  8  1  0  0  0  0
  7  9  1  0  0  0  0
  9 10  2  0  0  0  0
  9 11  1  0  0  0  0
 11  4  1  0  0  0  0
M  END
> <ChemID>
201506

> <CAS>
76-22-2

> <Original_SMILES>
CC1(C)C2CC(=O)C1(C)CC2

> <preferred_name>
Camphor

> <dsstox_substance_id>
DTXSID5030955

> <dsstox_compound_id>
DTXCID3010955

> <qc_level>


> <Canonical_QSARr>
CC1(C)C2CC(=O)C1(C)CC2

> <InChI_Code_QSARr>
InChI=1S/C10H16O/c1-9(2)7-4-5-10(9,3)8(11)6-7/h7H,4-6H2,1-3H3

> <InChI Key_QSARr>
DSSYKIVIOFKYAU-UHFFFAOYSA-N

> <Salt_Solvent>


> <Salt_Solvent_ID>
0

> <MPID>
101323

> <Tr_1_Tst_0>
0

> <Ready_Biodeg>
1.0

$$$$
Row1289
  Mrv171c012251911052D          

 12 13  0  0  0  0            999 V2000
   -0.6441    0.2091    0.0000 C   0  0  0  0  0  0  0  0  0  0  0  0
   -0.1316   -0.3576    0.0000 C   0  0  0  0  0  0  0  0  0  0  0  0
   -0.6569   -0.8514    0.0000 C   0  0  0  0  0  0  0  0  0  0  0  0
    0.4025    0.3807    0.0000 C   0  0  0  0  0  0  0  0  0  0  0  0
    1.2274    0.3708    0.0000 C   0  0  0  0  0  0  0  0  0  0  0  0
    1.6313   -0.3486    0.0000 C   0  0  0  0  0  0  0  0  0  0  0  0
    1.2102   -1.0581    0.0000 C   0  0  0  0  0  0  0  0  0  0  0  0
    1.9820   -1.3496    0.0000 C   0  0  0  0  0  0  0  0  0  0  0  0
    1.0572   -1.8688    0.0000 O   0  0  0  0  0  0  0  0  0  0  0  0
    1.6828   -2.4066    0.0000 O   0  0  0  0  0  0  0  0  0  0  0  0
    0.3853   -1.0482    0.0000 C   0  0  0  0  0  0  0  0  0  0  0  0
    0.2153   -0.3316    0.0000 C   0  0  0  0  0  0  0  0  0  0  0  0
  1  2  1  0  0  0  0
  2  3  1  0  0  0  0
  4  2  1  0  0  0  0
  4  5  1  0  0  0  0
  5  6  1  0  0  0  0
  6  7  1  0  0  0  0
  7  8  1  0  0  0  0
  7  9  1  0  0  0  0
  9 10  1  0  0  0  0
  7 11  1  0  0  0  0
  2 11  1  0  0  0  0
 11 12  1  0  0  0  0
 12  4  1  0  0  0  0
M  END
> <ChemID>
201509

> <CAS>
5405-84-5

> <Original_SMILES>
CC1(C)C2CC1CCC2(C)OO

> <preferred_name>
pinanylhydroperoxide

> <dsstox_substance_id>
DTXSID20277954

> <dsstox_compound_id>
DTXCID40229112

> <qc_level>


> <Canonical_QSARr>
CC1(C)C2CC1CCC2(C)OO

> <InChI_Code_QSARr>
InChI=1S/C10H18O2/c1-9(2)7-4-5-10(3,12-11)8(9)6-7/h7-8,11H,4-6H2,1-3H3

> <InChI Key_QSARr>
QMQTYHMGPDPPPW-UHFFFAOYSA-N

> <Salt_Solvent>


> <Salt_Solvent_ID>
0

> <MPID>
101324

> <Tr_1_Tst_0>
1

> <Ready_Biodeg>
0.0

$$$$
Row1290
  Mrv171c012251911052D          

 11 11  0  0  0  0            999 V2000
   -1.6116   -1.5428    0.0000 C   0  0  0  0  0  0  0  0  0  0  0  0
   -1.3294   -0.7676    0.0000 C   0  0  0  0  0  0  0  0  0  0  0  0
   -2.1419   -0.6243    0.0000 C   0  0  0  0  0  0  0  0  0  0  0  0
   -0.6150   -1.1801    0.0000 C   0  0  0  0  0  0  0  0  0  0  0  0
    0.0995   -0.7676    0.0000 C   0  0  0  0  0  0  0  0  0  0  0  0
    0.8140   -1.1801    0.0000 O   0  0  0  0  0  0  0  0  0  0  0  0
    0.0995    0.0574    0.0000 C   0  0  0  0  0  0  0  0  0  0  0  0
   -0.6150    0.4699    0.0000 C   0  0  0  0  0  0  0  0  0  0  0  0
   -0.0847    1.1019    0.0000 C   0  0  0  0  0  0  0  0  0  0  0  0
   -1.1453    1.1019    0.0000 C   0  0  0  0  0  0  0  0  0  0  0  0
   -1.3294    0.0574    0.0000 N   0  0  0  0  0  0  0  0  0  0  0  0
  1  2  1  0  0  0  0
  2  3  1  0  0  0  0
  4  2  1  0  0  0  0
  5  4  1  0  0  0  0
  5  6  2  0  0  0  0
  7  5  1  0  0  0  0
  8  7  1  0  0  0  0
  8  9  1  0  0  0  0
  8 10  1  0  0  0  0
 11  8  1  0  0  0  0
  2 11  1  0  0  0  0
M  END
> <ChemID>
201510

> <CAS>
826-36-8

> <Original_SMILES>
CC1(C)CC(=O)CC(C)(C)N1

> <preferred_name>
2,2,6,6-Tetramethyl-4-piperidone

> <dsstox_substance_id>
DTXSID4041527

> <dsstox_compound_id>
DTXCID2021527

> <qc_level>


> <Canonical_QSARr>
CC1(C)CC(=O)CC(C)(C)N1

> <InChI_Code_QSARr>
InChI=1S/C9H17NO/c1-8(2)5-7(11)6-9(3,4)10-8/h10H,5-6H2,1-4H3

> <InChI Key_QSARr>
JWUXJYZVKZKLTJ-UHFFFAOYSA-N

> <Salt_Solvent>


> <Salt_Solvent_ID>
0

> <MPID>
101325

> <Tr_1_Tst_0>
0

> <Ready_Biodeg>
0.0

$$$$
Row1291
  Mrv171c012251911052D          

 12 12  0  0  0  0            999 V2000
   -0.2412   -1.6772    0.0000 C   0  0  0  0  0  0  0  0  0  0  0  0
    0.0410   -0.9019    0.0000 C   0  0  0  0  0  0  0  0  0  0  0  0
   -0.7715   -0.7586    0.0000 C   0  0  0  0  0  0  0  0  0  0  0  0
    0.7555   -1.3144    0.0000 C   0  0  0  0  0  0  0  0  0  0  0  0
    1.4700   -0.9019    0.0000 C   0  0  0  0  0  0  0  0  0  0  0  0
    2.1844   -1.3144    0.0000 N   0  0  0  0  0  0  0  0  0  0  0  0
    1.4700   -0.0769    0.0000 C   0  0  0  0  0  0  0  0  0  0  0  0
    0.7555    0.3356    0.0000 C   0  0  0  0  0  0  0  0  0  0  0  0
    1.2858    0.9676    0.0000 C   0  0  0  0  0  0  0  0  0  0  0  0
    0.2252    0.9676    0.0000 C   0  0  0  0  0  0  0  0  0  0  0  0
   -0.5873    0.8243    0.0000 N   0  0  0  0  0  0  0  0  0  0  0  0
    0.0410   -0.0769    0.0000 C   0  0  0  0  0  0  0  0  0  0  0  0
  1  2  1  0  0  0  0
  2  3  1  0  0  0  0
  4  2  1  0  0  0  0
  5  4  1  0  0  0  0
  5  6  1  0  0  0  0
  7  5  1  0  0  0  0
  8  7  1  0  0  0  0
  8  9  1  0  0  0  0
  8 10  1  0  0  0  0
 10 11  1  0  0  0  0
 12  8  1  0  0  0  0
  2 12  1  0  0  0  0
M  END
> <ChemID>
201512

> <CAS>
2855-13-2

> <Original_SMILES>
CC1(C)CC(N)CC(C)(C1)CN

> <preferred_name>
Isophorone diamine

> <dsstox_substance_id>
DTXSID6027503

> <dsstox_compound_id>
DTXCID907503

> <qc_level>


> <Canonical_QSARr>
CC1(C)CC(N)CC(C)(C1)CN

> <InChI_Code_QSARr>
InChI=1S/C10H22N2/c1-9(2)4-8(12)5-10(3,6-9)7-11/h8H,4-7,11-12H2,1-3H3

> <InChI Key_QSARr>
RNLHGQLZWXBQNY-UHFFFAOYSA-N

> <Salt_Solvent>


> <Salt_Solvent_ID>
0

> <MPID>
101326

> <Tr_1_Tst_0>
1

> <Ready_Biodeg>
0.0

$$$$
Row1292
  Mrv171c012251911052D          

 11 11  0  0  0  0            999 V2000
   -1.6976   -1.1064    0.0000 C   0  0  0  0  0  0  0  0  0  0  0  0
   -1.4155   -0.3312    0.0000 C   0  0  0  0  0  0  0  0  0  0  0  0
   -2.2279   -0.1879    0.0000 C   0  0  0  0  0  0  0  0  0  0  0  0
   -0.7010   -0.7437    0.0000 C   0  0  0  0  0  0  0  0  0  0  0  0
    0.0135   -0.3312    0.0000 C   0  0  0  0  0  0  0  0  0  0  0  0
    0.7280   -0.7437    0.0000 O   0  0  0  0  0  0  0  0  0  0  0  0
    0.0135    0.4938    0.0000 C   0  0  0  0  0  0  0  0  0  0  0  0
   -0.7010    0.9063    0.0000 C   0  0  0  0  0  0  0  0  0  0  0  0
   -0.1707    1.5383    0.0000 C   0  0  0  0  0  0  0  0  0  0  0  0
   -1.2313    1.5383    0.0000 C   0  0  0  0  0  0  0  0  0  0  0  0
   -1.4155    0.4938    0.0000 N   0  0  0  0  0  0  0  0  0  0  0  0
  1  2  1  0  0  0  0
  2  3  1  0  0  0  0
  4  2  1  0  0  0  0
  5  4  1  0  0  0  0
  5  6  1  0  0  0  0
  7  5  1  0  0  0  0
  8  7  1  0  0  0  0
  8  9  1  0  0  0  0
  8 10  1  0  0  0  0
 11  8  1  0  0  0  0
  2 11  1  0  0  0  0
M  END
> <ChemID>
201513

> <CAS>
2403-88-5

> <Original_SMILES>
CC1(C)CC(O)CC(C)(C)N1

> <preferred_name>
2,2,6,6-Tetramethyl- 4-piperidinol

> <dsstox_substance_id>
DTXSID3029655

> <dsstox_compound_id>
DTXCID609655

> <qc_level>


> <Canonical_QSARr>
CC1(C)CC(O)CC(C)(C)N1

> <InChI_Code_QSARr>
InChI=1S/C9H19NO/c1-8(2)5-7(11)6-9(3,4)10-8/h7,10-11H,5-6H2,1-4H3

> <InChI Key_QSARr>
VDVUCLWJZJHFAV-UHFFFAOYSA-N

> <Salt_Solvent>


> <Salt_Solvent_ID>
0

> <MPID>
101327

> <Tr_1_Tst_0>
1

> <Ready_Biodeg>
0.0

$$$$
Row1293
  Mrv171c012251911052D          

  6  6  0  0  0  0            999 V2000
   -0.9536    0.3625    0.0000 C   0  0  0  0  0  0  0  0  0  0  0  0
   -0.3216   -0.1678    0.0000 C   0  0  0  0  0  0  0  0  0  0  0  0
    0.3104    0.3625    0.0000 C   0  0  0  0  0  0  0  0  0  0  0  0
    0.1671    1.1749    0.0000 Cl  0  0  0  0  0  0  0  0  0  0  0  0
   -0.7341   -0.8823    0.0000 C   0  0  0  0  0  0  0  0  0  0  0  0
    0.0909   -0.8823    0.0000 O   0  0  0  0  0  0  0  0  0  0  0  0
  1  2  1  0  0  0  0
  2  3  1  0  0  0  0
  3  4  1  0  0  0  0
  5  2  1  0  0  0  0
  6  5  1  0  0  0  0
  2  6  1  0  0  0  0
M  END
> <ChemID>
201514

> <CAS>
NOCAS_870659

> <Original_SMILES>
CC1(CCl)CO1

> <preferred_name>


> <dsstox_substance_id>
DTXSID50870659

> <dsstox_compound_id>
DTXCID50818359

> <qc_level>


> <Canonical_QSARr>
CC1(CCl)CO1

> <InChI_Code_QSARr>
InChI=1S/C4H7ClO/c1-4(2-5)3-6-4/h2-3H2,1H3

> <InChI Key_QSARr>
VVHFXJOCUKBZFS-UHFFFAOYSA-N

> <Salt_Solvent>


> <Salt_Solvent_ID>
0

> <MPID>
101328

> <Tr_1_Tst_0>
0

> <Ready_Biodeg>
0.0

$$$$
Row1294
  Mrv171c012251911052D          

 16 17  0  0  0  0            999 V2000
   -4.3762   -2.2688    0.0000 C   0  0  0  0  0  0  0  0  0  0  0  0
   -3.6617   -1.8563    0.0000 C   0  0  0  0  0  0  0  0  0  0  0  0
   -3.6617   -1.0313    0.0000 O   0  0  0  0  0  0  0  0  0  0  0  0
   -2.9472   -0.6188    0.0000 C   0  0  0  0  0  0  0  0  0  0  0  0
   -2.9472    0.2062    0.0000 C   0  0  0  0  0  0  0  0  0  0  0  0
   -2.2327    0.6187    0.0000 C   0  0  0  0  0  0  0  0  0  0  0  0
   -1.5183    0.2062    0.0000 C   0  0  0  0  0  0  0  0  0  0  0  0
   -0.8038    0.6187    0.0000 N   0  0  0  0  0  0  0  0  0  0  0  0
   -0.0893    0.2062    0.0000 C   0  0  0  0  0  0  0  0  0  0  0  0
    0.1928    0.9815    0.0000 C   0  0  0  0  0  0  0  0  0  0  0  0
    0.7231    0.0630    0.0000 C   0  0  0  0  0  0  0  0  0  0  0  0
   -0.0893   -0.6188    0.0000 C   0  0  0  0  0  0  0  0  0  0  0  0
   -0.8038   -1.0313    0.0000 C   0  0  0  0  0  0  0  0  0  0  0  0
   -0.8038   -1.8563    0.0000 C   0  0  0  0  0  0  0  0  0  0  0  0
   -1.5183   -0.6188    0.0000 C   0  0  0  0  0  0  0  0  0  0  0  0
   -2.2327   -1.0313    0.0000 C   0  0  0  0  0  0  0  0  0  0  0  0
  1  2  1  0  0  0  0
  2  3  1  0  0  0  0
  3  4  1  0  0  0  0
  5  4  2  0  0  0  0
  6  5  1  0  0  0  0
  7  6  2  0  0  0  0
  7  8  1  0  0  0  0
  8  9  1  0  0  0  0
  9 10  1  0  0  0  0
  9 11  1  0  0  0  0
  9 12  1  0  0  0  0
 12 13  2  0  0  0  0
 13 14  1  0  0  0  0
 13 15  1  0  0  0  0
 15  7  1  0  0  0  0
 16 15  2  0  0  0  0
  4 16  1  0  0  0  0
M  END
> <ChemID>
201517

> <CAS>
91-53-2

> <Original_SMILES>
CC1=CC(C)(C)Nc2ccc(cc12)OCC

> <preferred_name>
Ethoxyquin

> <dsstox_substance_id>
DTXSID9020582

> <dsstox_compound_id>
DTXCID70582

> <qc_level>


> <Canonical_QSARr>
CC1=CC(C)(C)NC2=CC=C(C=C12)OCC

> <InChI_Code_QSARr>
InChI=1S/C14H19NO/c1-5-16-11-6-7-13-12(8-11)10(2)9-14(3,4)15-13/h6-9,15H,5H2,1-4H3

> <InChI Key_QSARr>
DECIPOUIJURFOJ-UHFFFAOYSA-N

> <Salt_Solvent>


> <Salt_Solvent_ID>
0

> <MPID>
101329

> <Tr_1_Tst_0>
1

> <Ready_Biodeg>
0.0

$$$$
Row1295
  Mrv171c012251911052D          

 13 14  0  0  0  0            999 V2000
   -1.4958   -1.8000    0.0000 C   0  0  0  0  0  0  0  0  0  0  0  0
   -1.4958   -0.9750    0.0000 C   0  0  0  0  0  0  0  0  0  0  0  0
   -2.2103   -0.5625    0.0000 C   0  0  0  0  0  0  0  0  0  0  0  0
   -2.2103    0.2625    0.0000 C   0  0  0  0  0  0  0  0  0  0  0  0
   -3.0227    0.1192    0.0000 C   0  0  0  0  0  0  0  0  0  0  0  0
   -2.4924    1.0377    0.0000 C   0  0  0  0  0  0  0  0  0  0  0  0
   -1.4958    0.6750    0.0000 N   0  0  0  0  0  0  0  0  0  0  0  0
   -0.7813    0.2625    0.0000 C   0  0  0  0  0  0  0  0  0  0  0  0
   -0.0668    0.6750    0.0000 C   0  0  0  0  0  0  0  0  0  0  0  0
    0.6476    0.2625    0.0000 C   0  0  0  0  0  0  0  0  0  0  0  0
    0.6476   -0.5625    0.0000 C   0  0  0  0  0  0  0  0  0  0  0  0
   -0.0668   -0.9750    0.0000 C   0  0  0  0  0  0  0  0  0  0  0  0
   -0.7813   -0.5625    0.0000 C   0  0  0  0  0  0  0  0  0  0  0  0
  1  2  1  0  0  0  0
  3  2  2  0  0  0  0
  4  3  1  0  0  0  0
  4  5  1  0  0  0  0
  4  6  1  0  0  0  0
  7  4  1  0  0  0  0
  8  7  1  0  0  0  0
  8  9  2  0  0  0  0
  9 10  1  0  0  0  0
 10 11  2  0  0  0  0
 11 12  1  0  0  0  0
 12 13  2  0  0  0  0
  2 13  1  0  0  0  0
 13  8  1  0  0  0  0
M  END
> <ChemID>
201518

> <CAS>
147-47-7

> <Original_SMILES>
CC1=CC(C)(C)Nc2ccccc12

> <preferred_name>


> <dsstox_substance_id>
DTXSID0025070

> <dsstox_compound_id>
DTXCID605070

> <qc_level>


> <Canonical_QSARr>
CC1=CC(C)(C)NC2=CC=CC=C12

> <InChI_Code_QSARr>
InChI=1S/C12H15N/c1-9-8-12(2,3)13-11-7-5-4-6-10(9)11/h4-8,13H,1-3H3

> <InChI Key_QSARr>
ZNRLMGFXSPUZNR-UHFFFAOYSA-N

> <Salt_Solvent>


> <Salt_Solvent_ID>
0

> <MPID>
101330

> <Tr_1_Tst_0>
0

> <Ready_Biodeg>
0.0

$$$$
Row1296
  Mrv171c012251911052D          

 13 15  0  0  0  0            999 V2000
    1.2594    1.0922    0.0000 C   0  0  0  0  0  0  0  0  0  0  0  0
    0.5450    0.6797    0.0000 C   0  0  0  0  0  0  0  0  0  0  0  0
    0.5450   -0.1453    0.0000 C   0  0  0  0  0  0  0  0  0  0  0  0
   -0.1695   -0.5578    0.0000 C   0  0  0  0  0  0  0  0  0  0  0  0
   -0.3758    0.2672    0.0000 C   0  0  0  0  0  0  0  0  0  0  0  0
   -0.1695    1.0922    0.0000 C   0  0  0  0  0  0  0  0  0  0  0  0
   -0.8840    0.6797    0.0000 C   0  0  0  0  0  0  0  0  0  0  0  0
   -0.8840   -0.1453    0.0000 C   0  0  0  0  0  0  0  0  0  0  0  0
   -1.6686   -0.4002    0.0000 C   0  0  0  0  0  0  0  0  0  0  0  0
   -1.9235   -1.1849    0.0000 O   0  0  0  0  0  0  0  0  0  0  0  0
   -2.1535    0.2672    0.0000 O   0  0  0  0  0  0  0  0  0  0  0  0
   -1.6686    0.9346    0.0000 C   0  0  0  0  0  0  0  0  0  0  0  0
   -1.9235    1.7193    0.0000 O   0  0  0  0  0  0  0  0  0  0  0  0
  1  2  1  0  0  0  0
  3  2  2  0  0  0  0
  4  3  1  0  0  0  0
  4  5  1  0  0  0  0
  5  6  1  0  0  0  0
  2  6  1  0  0  0  0
  6  7  1  0  0  0  0
  8  7  1  0  0  0  0
  8  4  1  0  0  0  0
  9  8  1  0  0  0  0
  9 10  2  0  0  0  0
 11  9  1  0  0  0  0
 12 11  1  0  0  0  0
  7 12  1  0  0  0  0
 12 13  2  0  0  0  0
M  END
> <ChemID>
201519

> <CAS>
25134-21-8

> <Original_SMILES>
CC1=CC2CC1C1C2C(=O)OC1=O

> <preferred_name>


> <dsstox_substance_id>
DTXSID6027844

> <dsstox_compound_id>


> <qc_level>


> <Canonical_QSARr>
CC1=CC2CC1C1C2C(=O)OC1=O

> <InChI_Code_QSARr>
InChI=1S/C10H10O3/c1-4-2-5-3-6(4)8-7(5)9(11)13-10(8)12/h2,5-8H,3H2,1H3

> <InChI Key_QSARr>
JIYNFFGKZCOPKN-UHFFFAOYSA-N

> <Salt_Solvent>


> <Salt_Solvent_ID>
0

> <MPID>
101331

> <Tr_1_Tst_0>
1

> <Ready_Biodeg>
0.0

$$$$
Row1297
  Mrv171c012251911052D          

 10 11  0  0  0  0            999 V2000
    2.1819    1.0894    0.0000 C   0  0  0  0  0  0  0  0  0  0  0  0
    1.7663    0.3767    0.0000 C   0  0  0  0  0  0  0  0  0  0  0  0
    2.1758   -0.3395    0.0000 C   0  0  0  0  0  0  0  0  0  0  0  0
    1.7602   -1.0522    0.0000 C   0  0  0  0  0  0  0  0  0  0  0  0
    0.9352   -1.0487    0.0000 C   0  0  0  0  0  0  0  0  0  0  0  0
    0.8722   -0.3641    0.0000 C   0  0  0  0  0  0  0  0  0  0  0  0
    0.9413    0.3802    0.0000 C   0  0  0  0  0  0  0  0  0  0  0  0
    0.5258   -0.3325    0.0000 C   0  0  0  0  0  0  0  0  0  0  0  0
   -0.2010    0.0580    0.0000 C   0  0  0  0  0  0  0  0  0  0  0  0
   -0.2043   -0.7167    0.0000 C   0  0  0  0  0  0  0  0  0  0  0  0
  1  2  1  0  0  0  0
  3  2  2  0  0  0  0
  4  3  1  0  0  0  0
  5  4  1  0  0  0  0
  5  6  1  0  0  0  0
  6  7  1  0  0  0  0
  2  7  1  0  0  0  0
  7  8  1  0  0  0  0
  8  5  1  0  0  0  0
  8  9  1  0  0  0  0
  8 10  1  0  0  0  0
M  END
> <ChemID>
201520

> <CAS>
80-56-8

> <Original_SMILES>
CC1=CCC2CC1C2(C)C

> <preferred_name>
alpha-Pinene

> <dsstox_substance_id>
DTXSID4026501

> <dsstox_compound_id>
DTXCID006501

> <qc_level>


> <Canonical_QSARr>
CC1=CCC2CC1C2(C)C

> <InChI_Code_QSARr>
InChI=1S/C10H16/c1-7-4-5-8-6-9(7)10(8,2)3/h4,8-9H,5-6H2,1-3H3

> <InChI Key_QSARr>
GRWFGVWFFZKLTI-UHFFFAOYSA-N

> <Salt_Solvent>


> <Salt_Solvent_ID>
0

> <MPID>
101332

> <Tr_1_Tst_0>
1

> <Ready_Biodeg>
1.0

$$$$
Row1298
  Mrv171c012251911052D          

 10 10  0  0  0  0            999 V2000
   -0.7084   -0.9698    0.0000 C   0  0  0  0  0  0  0  0  0  0  0  0
    0.0061   -0.5573    0.0000 C   0  0  0  0  0  0  0  0  0  0  0  0
    0.7206   -0.9698    0.0000 C   0  0  0  0  0  0  0  0  0  0  0  0
    1.4350   -0.5573    0.0000 C   0  0  0  0  0  0  0  0  0  0  0  0
    2.1495   -0.9698    0.0000 O   0  0  0  0  0  0  0  0  0  0  0  0
    1.4350    0.2677    0.0000 C   0  0  0  0  0  0  0  0  0  0  0  0
    0.7206    0.6802    0.0000 C   0  0  0  0  0  0  0  0  0  0  0  0
    1.2509    1.3122    0.0000 C   0  0  0  0  0  0  0  0  0  0  0  0
    0.1903    1.3122    0.0000 C   0  0  0  0  0  0  0  0  0  0  0  0
    0.0061    0.2677    0.0000 C   0  0  0  0  0  0  0  0  0  0  0  0
  1  2  1  0  0  0  0
  3  2  1  0  0  0  0
  4  3  1  0  0  0  0
  4  5  2  0  0  0  0
  6  4  1  0  0  0  0
  7  6  1  0  0  0  0
  7  8  1  0  0  0  0
  7  9  1  0  0  0  0
 10  7  1  0  0  0  0
  2 10  1  0  0  0  0
M  END
> <ChemID>
201521

> <CAS>
873-94-9

> <Original_SMILES>
CC1CC(=O)CC(C)(C)C1

> <preferred_name>
3,3,5-Trimethylcyclohexanone

> <dsstox_substance_id>
DTXSID5044996

> <dsstox_compound_id>
DTXCID3024996

> <qc_level>


> <Canonical_QSARr>
CC1CC(=O)CC(C)(C)C1

> <InChI_Code_QSARr>
InChI=1S/C9H16O/c1-7-4-8(10)6-9(2,3)5-7/h7H,4-6H2,1-3H3

> <InChI Key_QSARr>
POSWICCRDBKBMH-UHFFFAOYSA-N

> <Salt_Solvent>


> <Salt_Solvent_ID>
0

> <MPID>
101333

> <Tr_1_Tst_0>
1

> <Ready_Biodeg>
0.0

$$$$
Row1299
  Mrv171c012251911052D          

 19 20  0  0  0  0            999 V2000
   -1.4771   -3.4545    0.0000 C   0  0  0  0  0  0  0  0  0  0  0  0
   -1.9620   -2.7870    0.0000 C   0  0  0  0  0  0  0  0  0  0  0  0
   -1.7071   -2.0024    0.0000 N   0  0  0  0  0  0  0  0  0  0  0  0
   -2.3745   -1.5175    0.0000 N   0  0  0  0  0  0  0  0  0  0  0  0
   -2.3745   -0.6925    0.0000 C   0  0  0  0  0  0  0  0  0  0  0  0
   -1.6600   -0.2800    0.0000 C   0  0  0  0  0  0  0  0  0  0  0  0
   -1.6600    0.5450    0.0000 C   0  0  0  0  0  0  0  0  0  0  0  0
   -0.9456    0.9575    0.0000 Cl  0  0  0  0  0  0  0  0  0  0  0  0
   -2.3745    0.9575    0.0000 C   0  0  0  0  0  0  0  0  0  0  0  0
   -2.3745    1.7825    0.0000 S   0  0  0  0  0  0  0  0  0  0  0  0
   -2.3745    2.6075    0.0000 O   0  0  0  0  0  0  0  0  0  0  0  0
   -1.5495    1.7825    0.0000 O   0  0  0  0  0  0  0  0  0  0  0  0
   -3.1995    1.7825    0.0000 O   0  0  0  0  0  0  0  0  0  0  0  0
   -3.0890    0.5450    0.0000 C   0  0  0  0  0  0  0  0  0  0  0  0
   -3.0890   -0.2800    0.0000 C   0  0  0  0  0  0  0  0  0  0  0  0
   -3.8034   -0.6925    0.0000 Cl  0  0  0  0  0  0  0  0  0  0  0  0
   -3.0419   -2.0024    0.0000 C   0  0  0  0  0  0  0  0  0  0  0  0
   -3.8266   -1.7475    0.0000 O   0  0  0  0  0  0  0  0  0  0  0  0
   -2.7870   -2.7870    0.0000 C   0  0  0  0  0  0  0  0  0  0  0  0
  1  2  1  0  0  0  0
  3  2  2  0  0  0  0
  4  3  1  0  0  0  0
  4  5  1  0  0  0  0
  6  5  2  0  0  0  0
  7  6  1  0  0  0  0
  7  8  1  0  0  0  0
  9  7  2  0  0  0  0
  9 10  1  0  0  0  0
 10 11  1  0  0  0  0
 10 12  2  0  0  0  0
 10 13  2  0  0  0  0
 14  9  1  0  0  0  0
 15 14  2  0  0  0  0
  5 15  1  0  0  0  0
 15 16  1  0  0  0  0
 17  4  1  0  0  0  0
 17 18  2  0  0  0  0
 19 17  1  0  0  0  0
  2 19  1  0  0  0  0
M  END
> <ChemID>
201522

> <CAS>
84-57-1

> <Original_SMILES>
CC1CC(=O)N(N=1)c1cc(Cl)c(cc1Cl)S(O)(=O)=O

> <preferred_name>
Benzenesulfonic acid, 2,5-dichloro-4-(4,5-dihydro-3-methyl-5-oxo-1H-pyrazol-1-yl)-

> <dsstox_substance_id>
DTXSID8058906

> <dsstox_compound_id>
DTXCID6048381

> <qc_level>


> <Canonical_QSARr>
CC1CC(=O)N(N=1)C1=CC(Cl)=C(C=C1Cl)S(O)(=O)=O

> <InChI_Code_QSARr>
InChI=1S/C10H8Cl2N2O4S/c1-5-2-10(15)14(13-5)8-3-7(12)9(4-6(8)11)19(16,17)18/h3-4H,2H2,1H3,(H,16,17,18)

> <InChI Key_QSARr>
KCEIVWKDBLAQKL-UHFFFAOYSA-N

> <Salt_Solvent>


> <Salt_Solvent_ID>
0

> <MPID>
101334

> <Tr_1_Tst_0>
0

> <Ready_Biodeg>
0.0

$$$$
Row1300
  Mrv171c012251911052D          

 17 18  0  0  0  0            999 V2000
    1.3730   -1.7979    0.0000 C   0  0  0  0  0  0  0  0  0  0  0  0
    0.6585   -1.3854    0.0000 C   0  0  0  0  0  0  0  0  0  0  0  0
    0.6585   -0.5604    0.0000 C   0  0  0  0  0  0  0  0  0  0  0  0
   -0.0560   -0.1479    0.0000 C   0  0  0  0  0  0  0  0  0  0  0  0
   -0.0560    0.6771    0.0000 C   0  0  0  0  0  0  0  0  0  0  0  0
   -0.7704    1.0896    0.0000 C   0  0  0  0  0  0  0  0  0  0  0  0
   -0.7704    1.9146    0.0000 C   0  0  0  0  0  0  0  0  0  0  0  0
   -1.4849    2.3271    0.0000 C   0  0  0  0  0  0  0  0  0  0  0  0
   -2.1994    1.9146    0.0000 C   0  0  0  0  0  0  0  0  0  0  0  0
   -2.9139    2.3271    0.0000 N   0  0  0  0  0  0  0  0  0  0  0  0
   -2.1994    1.0896    0.0000 C   0  0  0  0  0  0  0  0  0  0  0  0
   -2.9139    0.6771    0.0000 C   0  0  0  0  0  0  0  0  0  0  0  0
   -1.4849    0.6771    0.0000 C   0  0  0  0  0  0  0  0  0  0  0  0
   -0.7704   -0.5604    0.0000 C   0  0  0  0  0  0  0  0  0  0  0  0
   -0.7704   -1.3854    0.0000 C   0  0  0  0  0  0  0  0  0  0  0  0
   -0.0560   -1.7979    0.0000 C   0  0  0  0  0  0  0  0  0  0  0  0
   -0.0560   -2.6229    0.0000 N   0  0  0  0  0  0  0  0  0  0  0  0
  1  2  1  0  0  0  0
  3  2  1  0  0  0  0
  4  3  1  0  0  0  0
  4  5  1  0  0  0  0
  5  6  1  0  0  0  0
  7  6  1  0  0  0  0
  8  7  1  0  0  0  0
  9  8  1  0  0  0  0
  9 10  1  0  0  0  0
 11  9  1  0  0  0  0
 11 12  1  0  0  0  0
 13 11  1  0  0  0  0
  6 13  1  0  0  0  0
 14  4  1  0  0  0  0
 15 14  1  0  0  0  0
 16 15  1  0  0  0  0
  2 16  1  0  0  0  0
 16 17  1  0  0  0  0
M  END
> <ChemID>
201525

> <CAS>
6864-37-5

> <Original_SMILES>
CC1CC(CC2CC(C)C(N)CC2)CCC1N

> <preferred_name>
4,4'-Methylenebis(2-methylcyclohexanamine)

> <dsstox_substance_id>
DTXSID6029670

> <dsstox_compound_id>
DTXCID209670

> <qc_level>


> <Canonical_QSARr>
CC1CC(CC2CC(C)C(N)CC2)CCC1N

> <InChI_Code_QSARr>
InChI=1S/C15H30N2/c1-10-7-12(3-5-14(10)16)9-13-4-6-15(17)11(2)8-13/h10-15H,3-9,16-17H2,1-2H3

> <InChI Key_QSARr>
IGSBHTZEJMPDSZ-UHFFFAOYSA-N

> <Salt_Solvent>


> <Salt_Solvent_ID>
0

> <MPID>
101335

> <Tr_1_Tst_0>
1

> <Ready_Biodeg>
0.0

$$$$
Row1301
  Mrv171c012251911052D          

 11 11  0  0  0  0            999 V2000
   -2.2813   -0.3518    0.0000 C   0  0  0  0  0  0  0  0  0  0  0  0
   -1.5668   -0.7643    0.0000 C   0  0  0  0  0  0  0  0  0  0  0  0
   -1.5668   -1.5893    0.0000 C   0  0  0  0  0  0  0  0  0  0  0  0
   -0.8524   -2.0018    0.0000 C   0  0  0  0  0  0  0  0  0  0  0  0
   -0.1379   -1.5893    0.0000 C   0  0  0  0  0  0  0  0  0  0  0  0
   -0.1379   -0.7643    0.0000 C   0  0  0  0  0  0  0  0  0  0  0  0
   -0.8524   -0.3518    0.0000 C   0  0  0  0  0  0  0  0  0  0  0  0
   -0.8524    0.4732    0.0000 O   0  0  0  0  0  0  0  0  0  0  0  0
   -0.1379    0.8857    0.0000 C   0  0  0  0  0  0  0  0  0  0  0  0
   -0.1379    1.7107    0.0000 C   0  0  0  0  0  0  0  0  0  0  0  0
    0.5766    0.4732    0.0000 O   0  0  0  0  0  0  0  0  0  0  0  0
  1  2  1  0  0  0  0
  3  2  1  0  0  0  0
  4  3  1  0  0  0  0
  5  4  1  0  0  0  0
  6  5  1  0  0  0  0
  7  6  1  0  0  0  0
  2  7  1  0  0  0  0
  7  8  1  0  0  0  0
  8  9  1  0  0  0  0
  9 10  1  0  0  0  0
  9 11  2  0  0  0  0
M  END
> <ChemID>
201532

> <CAS>
5726-19-2

> <Original_SMILES>
CC1CCCCC1OC(C)=O

> <preferred_name>


> <dsstox_substance_id>
DTXSID70863609

> <dsstox_compound_id>
DTXCID40812200

> <qc_level>


> <Canonical_QSARr>
CC1CCCCC1OC(C)=O

> <InChI_Code_QSARr>
InChI=1S/C9H16O2/c1-7-5-3-4-6-9(7)11-8(2)10/h7,9H,3-6H2,1-2H3

> <InChI Key_QSARr>
AKIIJALHGMKJEJ-UHFFFAOYSA-N

> <Salt_Solvent>


> <Salt_Solvent_ID>
0

> <MPID>
101336

> <Tr_1_Tst_0>
1

> <Ready_Biodeg>
1.0

$$$$
Row1302
  Mrv171c012251911052D          

  7  7  0  0  0  0            999 V2000
   -1.2392   -1.8233    0.0000 C   0  0  0  0  0  0  0  0  0  0  0  0
   -0.7543   -1.1559    0.0000 C   0  0  0  0  0  0  0  0  0  0  0  0
    0.0707   -1.1559    0.0000 C   0  0  0  0  0  0  0  0  0  0  0  0
    0.3257   -0.3713    0.0000 O   0  0  0  0  0  0  0  0  0  0  0  0
   -0.3418    0.1136    0.0000 C   0  0  0  0  0  0  0  0  0  0  0  0
   -0.3418    0.9386    0.0000 O   0  0  0  0  0  0  0  0  0  0  0  0
   -1.0092   -0.3713    0.0000 O   0  0  0  0  0  0  0  0  0  0  0  0
  1  2  1  0  0  0  0
  3  2  1  0  0  0  0
  4  3  1  0  0  0  0
  5  4  1  0  0  0  0
  5  6  2  0  0  0  0
  7  5  1  0  0  0  0
  2  7  1  0  0  0  0
M  END
> <ChemID>
201534

> <CAS>
108-32-7

> <Original_SMILES>
CC1COC(=O)O1

> <preferred_name>
Propylene carbonate

> <dsstox_substance_id>
DTXSID2026789

> <dsstox_compound_id>
DTXCID006789

> <qc_level>


> <Canonical_QSARr>
CC1COC(=O)O1

> <InChI_Code_QSARr>
InChI=1S/C4H6O3/c1-3-2-6-4(5)7-3/h3H,2H2,1H3

> <InChI Key_QSARr>
RUOJZAUFBMNUDX-UHFFFAOYSA-N

> <Salt_Solvent>


> <Salt_Solvent_ID>
0

> <MPID>
101337

> <Tr_1_Tst_0>
0

> <Ready_Biodeg>
1.0

$$$$
Row1303
  Mrv171c012251911052D          

 12 12  0  0  0  0            999 V2000
    2.6968   -0.6045    0.0000 C   0  0  0  0  0  0  0  0  0  0  0  0
    1.8718   -0.6045    0.0000 C   0  0  0  0  0  0  0  0  0  0  0  0
    1.5561    0.1577    0.0000 O   0  0  0  0  0  0  0  0  0  0  0  0
    0.7939    0.4734    0.0000 C   0  0  0  0  0  0  0  0  0  0  0  0
    0.7939    1.2984    0.0000 C   0  0  0  0  0  0  0  0  0  0  0  0
    0.0317    0.1577    0.0000 O   0  0  0  0  0  0  0  0  0  0  0  0
   -0.2840   -0.6045    0.0000 C   0  0  0  0  0  0  0  0  0  0  0  0
   -1.1090   -0.6045    0.0000 C   0  0  0  0  0  0  0  0  0  0  0  0
    0.0317   -1.3667    0.0000 O   0  0  0  0  0  0  0  0  0  0  0  0
    0.7939   -1.6825    0.0000 C   0  0  0  0  0  0  0  0  0  0  0  0
    0.7939   -2.5075    0.0000 C   0  0  0  0  0  0  0  0  0  0  0  0
    1.5561   -1.3667    0.0000 O   0  0  0  0  0  0  0  0  0  0  0  0
  1  2  1  0  0  0  0
  3  2  1  0  0  0  0
  4  3  1  0  0  0  0
  4  5  1  0  0  0  0
  6  4  1  0  0  0  0
  7  6  1  0  0  0  0
  7  8  1  0  0  0  0
  9  7  1  0  0  0  0
 10  9  1  0  0  0  0
 10 11  1  0  0  0  0
 12 10  1  0  0  0  0
  2 12  1  0  0  0  0
M  END
> <ChemID>
201535

> <CAS>
108-62-3

> <Original_SMILES>
CC1OC(C)OC(C)OC(C)O1

> <preferred_name>
Metaldehyde acetaldehyde tetramer

> <dsstox_substance_id>
DTXSID1034715

> <dsstox_compound_id>
DTXCID9014715

> <qc_level>


> <Canonical_QSARr>
CC1OC(C)OC(C)OC(C)O1

> <InChI_Code_QSARr>
InChI=1S/C8H16O4/c1-5-9-6(2)11-8(4)12-7(3)10-5/h5-8H,1-4H3

> <InChI Key_QSARr>
GKKDCARASOJPNG-UHFFFAOYSA-N

> <Salt_Solvent>


> <Salt_Solvent_ID>
0

> <MPID>
101338

> <Tr_1_Tst_0>
1

> <Ready_Biodeg>
0.0

$$$$
Row1304
  Mrv171c012251911052D          

 12 11  0  0  0  0            999 V2000
    3.7125   -2.1434    0.0000 C   0  0  0  0  0  0  0  0  0  0  0  0
    3.3000   -1.4289    0.0000 C   0  0  0  0  0  0  0  0  0  0  0  0
    3.7125   -0.7145    0.0000 C   0  0  0  0  0  0  0  0  0  0  0  0
    3.3000    0.0000    0.0000 C   0  0  0  0  0  0  0  0  0  0  0  0
    2.4750    0.0000    0.0000 C   0  0  0  0  0  0  0  0  0  0  0  0
    2.0625    0.7145    0.0000 C   0  0  0  0  0  0  0  0  0  0  0  0
    1.2375    0.7145    0.0000 C   0  0  0  0  0  0  0  0  0  0  0  0
    0.8250    0.0000    0.0000 C   0  0  0  0  0  0  0  0  0  0  0  0
    0.0000    0.0000    0.0000 C   0  0  0  0  0  0  0  0  0  0  0  0
   -0.4125   -0.7145    0.0000 C   0  0  0  0  0  0  0  0  0  0  0  0
   -1.2375   -0.7145    0.0000 C   0  0  0  0  0  0  0  0  0  0  0  0
   -1.6500   -1.4289    0.0000 C   0  0  0  0  0  0  0  0  0  0  0  0
  2  1  1  4  0  0  0
  2  3  2  0  0  0  0
  3  4  1  0  0  0  0
  5  4  1  4  0  0  0
  5  6  2  0  0  0  0
  6  7  1  0  0  0  0
  8  7  1  4  0  0  0
  8  9  2  0  0  0  0
  9 10  1  0  0  0  0
 10 11  1  0  0  0  0
 11 12  2  0  0  0  0
M  END
> <ChemID>
201539

> <CAS>
6842-15-5

> <Original_SMILES>
C/C=C/C/C=C/C/C=C/CC=C

> <preferred_name>
1-Propene, tetramer

> <dsstox_substance_id>
DTXSID6027634

> <dsstox_compound_id>
DTXCID407634

> <qc_level>


> <Canonical_QSARr>
CC=CCC=CCC=CCC=C

> <InChI_Code_QSARr>
InChI=1S/C12H18/c1-3-5-7-9-11-12-10-8-6-4-2/h3-4,6-7,9-10,12H,1,5,8,11H2,2H3

> <InChI Key_QSARr>
RCRMTWBZRLYXQC-UHFFFAOYSA-N

> <Salt_Solvent>


> <Salt_Solvent_ID>
0

> <MPID>
101339

> <Tr_1_Tst_0>
1

> <Ready_Biodeg>
0.0

$$$$
Row1305
  Mrv171c012251911052D          

  9  8  0  0  0  0            999 V2000
   -3.5723    0.2292    0.0000 C   0  0  0  0  0  0  0  0  0  0  0  0
   -2.8579   -0.1833    0.0000 C   0  0  0  0  0  0  0  0  0  0  0  0
   -2.1434    0.2292    0.0000 C   0  0  0  0  0  0  0  0  0  0  0  0
   -2.1434    1.0542    0.0000 O   0  0  0  0  0  0  0  0  0  0  0  0
   -1.4289   -0.1833    0.0000 O   0  0  0  0  0  0  0  0  0  0  0  0
   -0.7145    0.2292    0.0000 C   0  0  0  0  0  0  0  0  0  0  0  0
   -0.7145    1.0542    0.0000 O   0  0  0  0  0  0  0  0  0  0  0  0
    0.0000   -0.1833    0.0000 C   0  0  0  0  0  0  0  0  0  0  0  0
    0.7145    0.2292    0.0000 C   0  0  0  0  0  0  0  0  0  0  0  0
  1  2  1  0  0  0  0
  2  3  1  0  0  0  0
  3  4  2  0  0  0  0
  3  5  1  0  0  0  0
  5  6  1  0  0  0  0
  6  7  2  0  0  0  0
  6  8  1  0  0  0  0
  8  9  1  0  0  0  0
M  END
> <ChemID>
201544

> <CAS>
123-62-6

> <Original_SMILES>
CCC(=O)OC(=O)CC

> <preferred_name>
Propanoic anhydride

> <dsstox_substance_id>
DTXSID1027007

> <dsstox_compound_id>
DTXCID507007

> <qc_level>


> <Canonical_QSARr>
CCC(=O)OC(=O)CC

> <InChI_Code_QSARr>
InChI=1S/C6H10O3/c1-3-5(7)9-6(8)4-2/h3-4H2,1-2H3

> <InChI Key_QSARr>
WYVAMUWZEOHJOQ-UHFFFAOYSA-N

> <Salt_Solvent>


> <Salt_Solvent_ID>
0

> <MPID>
101340

> <Tr_1_Tst_0>
1

> <Ready_Biodeg>
1.0

$$$$
Row1306
  Mrv171c012251911052D          

  7  6  0  0  0  0            999 V2000
   -2.7558    0.1768    0.0000 C   0  0  0  0  0  0  0  0  0  0  0  0
   -2.0413    0.5893    0.0000 C   0  0  0  0  0  0  0  0  0  0  0  0
   -1.3269    0.1768    0.0000 C   0  0  0  0  0  0  0  0  0  0  0  0
   -1.3269   -0.6482    0.0000 O   0  0  0  0  0  0  0  0  0  0  0  0
   -0.6124    0.5893    0.0000 O   0  0  0  0  0  0  0  0  0  0  0  0
    0.1021    0.1768    0.0000 C   0  0  0  0  0  0  0  0  0  0  0  0
    0.8166    0.5893    0.0000 C   0  0  0  0  0  0  0  0  0  0  0  0
  1  2  1  0  0  0  0
  2  3  1  0  0  0  0
  3  4  2  0  0  0  0
  3  5  1  0  0  0  0
  5  6  1  0  0  0  0
  6  7  2  0  0  0  0
M  END
> <ChemID>
201545

> <CAS>
105-38-4

> <Original_SMILES>
CCC(=O)OC=C

> <preferred_name>
Vinyl propionate

> <dsstox_substance_id>
DTXSID9051537

> <dsstox_compound_id>
DTXCID0030089

> <qc_level>


> <Canonical_QSARr>
CCC(=O)OC=C

> <InChI_Code_QSARr>
InChI=1S/C5H8O2/c1-3-5(6)7-4-2/h4H,2-3H2,1H3

> <InChI Key_QSARr>
UIWXSTHGICQLQT-UHFFFAOYSA-N

> <Salt_Solvent>


> <Salt_Solvent_ID>
0

> <MPID>
101341

> <Tr_1_Tst_0>
1

> <Ready_Biodeg>
1.0

$$$$
Row1307
  Mrv171c012251911052D          

 10 10  0  0  0  0            999 V2000
   -0.7145    1.8975    0.0000 C   0  0  0  0  0  0  0  0  0  0  0  0
   -0.7145    1.0725    0.0000 C   0  0  0  0  0  0  0  0  0  0  0  0
   -1.4290    0.6600    0.0000 C   0  0  0  0  0  0  0  0  0  0  0  0
   -2.1435    1.0725    0.0000 O   0  0  0  0  0  0  0  0  0  0  0  0
   -1.4290   -0.1650    0.0000 C   0  0  0  0  0  0  0  0  0  0  0  0
   -2.1435   -0.5775    0.0000 C   0  0  0  0  0  0  0  0  0  0  0  0
   -2.1435   -1.4025    0.0000 C   0  0  0  0  0  0  0  0  0  0  0  0
   -1.4290   -1.8150    0.0000 C   0  0  0  0  0  0  0  0  0  0  0  0
   -0.7145   -1.4025    0.0000 C   0  0  0  0  0  0  0  0  0  0  0  0
   -0.7145   -0.5775    0.0000 C   0  0  0  0  0  0  0  0  0  0  0  0
  1  2  1  0  0  0  0
  2  3  1  0  0  0  0
  3  4  2  0  0  0  0
  3  5  1  0  0  0  0
  6  5  2  0  0  0  0
  7  6  1  0  0  0  0
  8  7  2  0  0  0  0
  9  8  1  0  0  0  0
 10  9  2  0  0  0  0
  5 10  1  0  0  0  0
M  END
> <ChemID>
201546

> <CAS>
93-55-0

> <Original_SMILES>
CCC(=O)c1ccccc1

> <preferred_name>
1-Phenylpropan-1-one

> <dsstox_substance_id>
DTXSID2044470

> <dsstox_compound_id>
DTXCID0024470

> <qc_level>


> <Canonical_QSARr>
CCC(=O)C1C=CC=CC=1

> <InChI_Code_QSARr>
InChI=1S/C9H10O/c1-2-9(10)8-6-4-3-5-7-8/h3-7H,2H2,1H3

> <InChI Key_QSARr>
KRIOVPPHQSLHCZ-UHFFFAOYSA-N

> <Salt_Solvent>


> <Salt_Solvent_ID>
0

> <MPID>
101342

> <Tr_1_Tst_0>
0

> <Ready_Biodeg>
1.0

$$$$
Row1308
  Mrv171c012251911052D          

 11 11  0  0  0  0            999 V2000
   -0.0255    1.9500    0.0000 C   0  0  0  0  0  0  0  0  0  0  0  0
   -0.7400    1.5375    0.0000 C   0  0  0  0  0  0  0  0  0  0  0  0
   -0.7400    0.7125    0.0000 C   0  0  0  0  0  0  0  0  0  0  0  0
   -1.5650    0.7125    0.0000 C   0  0  0  0  0  0  0  0  0  0  0  0
    0.0850    0.7125    0.0000 C   0  0  0  0  0  0  0  0  0  0  0  0
   -0.7400   -0.1125    0.0000 C   0  0  0  0  0  0  0  0  0  0  0  0
   -1.4544   -0.5250    0.0000 C   0  0  0  0  0  0  0  0  0  0  0  0
   -1.4544   -1.3500    0.0000 C   0  0  0  0  0  0  0  0  0  0  0  0
   -0.7400   -1.7625    0.0000 C   0  0  0  0  0  0  0  0  0  0  0  0
   -0.0255   -1.3500    0.0000 C   0  0  0  0  0  0  0  0  0  0  0  0
   -0.0255   -0.5250    0.0000 C   0  0  0  0  0  0  0  0  0  0  0  0
  1  2  1  0  0  0  0
  2  3  1  0  0  0  0
  3  4  1  0  0  0  0
  3  5  1  0  0  0  0
  3  6  1  0  0  0  0
  7  6  2  0  0  0  0
  8  7  1  0  0  0  0
  9  8  2  0  0  0  0
 10  9  1  0  0  0  0
 11 10  2  0  0  0  0
  6 11  1  0  0  0  0
M  END
> <ChemID>
201547

> <CAS>
2049-95-8

> <Original_SMILES>
CCC(C)(C)c1ccccc1

> <preferred_name>
tert-Pentylbenzene

> <dsstox_substance_id>
DTXSID7051848

> <dsstox_compound_id>
DTXCID5030404

> <qc_level>


> <Canonical_QSARr>
CCC(C)(C)C1C=CC=CC=1

> <InChI_Code_QSARr>
InChI=1S/C11H16/c1-4-11(2,3)10-8-6-5-7-9-10/h5-9H,4H2,1-3H3

> <InChI Key_QSARr>
QHTJSSMHBLGUHV-UHFFFAOYSA-N

> <Salt_Solvent>


> <Salt_Solvent_ID>
0

> <MPID>
101343

> <Tr_1_Tst_0>
1

> <Ready_Biodeg>
0.0

$$$$
Row1309
  Mrv171c012251911052D          

  8  7  0  0  0  0            999 V2000
   -2.5196    0.3572    0.0000 C   0  0  0  0  0  0  0  0  0  0  0  0
   -1.8051    0.7697    0.0000 C   0  0  0  0  0  0  0  0  0  0  0  0
   -1.0906    0.3572    0.0000 C   0  0  0  0  0  0  0  0  0  0  0  0
   -1.0906   -0.4678    0.0000 C   0  0  0  0  0  0  0  0  0  0  0  0
   -0.3761    0.7697    0.0000 O   0  0  0  0  0  0  0  0  0  0  0  0
    0.3383    0.3572    0.0000 C   0  0  0  0  0  0  0  0  0  0  0  0
    1.0528    0.7697    0.0000 C   0  0  0  0  0  0  0  0  0  0  0  0
    0.3383   -0.4678    0.0000 O   0  0  0  0  0  0  0  0  0  0  0  0
  1  2  1  0  0  0  0
  2  3  1  0  0  0  0
  3  4  1  0  0  0  0
  3  5  1  0  0  0  0
  5  6  1  0  0  0  0
  6  7  1  0  0  0  0
  6  8  2  0  0  0  0
M  END
> <ChemID>
201549

> <CAS>
105-46-4

> <Original_SMILES>
CCC(C)OC(C)=O

> <preferred_name>
Butan-2-yl acetate

> <dsstox_substance_id>
DTXSID0047612

> <dsstox_compound_id>
DTXCID8027612

> <qc_level>


> <Canonical_QSARr>
CCC(C)OC(C)=O

> <InChI_Code_QSARr>
InChI=1S/C6H12O2/c1-4-5(2)8-6(3)7/h5H,4H2,1-3H3

> <InChI Key_QSARr>
DCKVNWZUADLDEH-UHFFFAOYSA-N

> <Salt_Solvent>


> <Salt_Solvent_ID>
0

> <MPID>
101344

> <Tr_1_Tst_0>
1

> <Ready_Biodeg>
1.0

$$$$
Row1310
  Mrv171c012251911052D          

 11 11  0  0  0  0            999 V2000
   -2.2444    1.5955    0.0000 C   0  0  0  0  0  0  0  0  0  0  0  0
   -1.5300    1.1830    0.0000 C   0  0  0  0  0  0  0  0  0  0  0  0
   -1.5300    0.3580    0.0000 C   0  0  0  0  0  0  0  0  0  0  0  0
   -2.2444   -0.0545    0.0000 C   0  0  0  0  0  0  0  0  0  0  0  0
   -0.8155   -0.0545    0.0000 C   0  0  0  0  0  0  0  0  0  0  0  0
   -0.8155   -0.8795    0.0000 C   0  0  0  0  0  0  0  0  0  0  0  0
   -0.1010   -1.2920    0.0000 C   0  0  0  0  0  0  0  0  0  0  0  0
    0.6134   -0.8795    0.0000 C   0  0  0  0  0  0  0  0  0  0  0  0
    0.6134   -0.0545    0.0000 C   0  0  0  0  0  0  0  0  0  0  0  0
   -0.1010    0.3580    0.0000 C   0  0  0  0  0  0  0  0  0  0  0  0
   -0.1010    1.1830    0.0000 O   0  0  0  0  0  0  0  0  0  0  0  0
  1  2  1  0  0  0  0
  2  3  1  0  0  0  0
  3  4  1  0  0  0  0
  3  5  1  0  0  0  0
  6  5  2  0  0  0  0
  7  6  1  0  0  0  0
  8  7  2  0  0  0  0
  9  8  1  0  0  0  0
 10  9  2  0  0  0  0
  5 10  1  0  0  0  0
 10 11  1  0  0  0  0
M  END
> <ChemID>
201552

> <CAS>
89-72-5

> <Original_SMILES>
CCC(C)c1ccccc1O

> <preferred_name>
2-(Butan-2-yl)phenol

> <dsstox_substance_id>
DTXSID2022331

> <dsstox_compound_id>
DTXCID102331

> <qc_level>


> <Canonical_QSARr>
CCC(C)C1=CC=CC=C1O

> <InChI_Code_QSARr>
InChI=1S/C10H14O/c1-3-8(2)9-6-4-5-7-10(9)11/h4-8,11H,3H2,1-2H3

> <InChI Key_QSARr>
NGFPWHGISWUQOI-UHFFFAOYSA-N

> <Salt_Solvent>


> <Salt_Solvent_ID>
0

> <MPID>
101345

> <Tr_1_Tst_0>
1

> <Ready_Biodeg>
0.0

$$$$
Row1311
  Mrv171c012251911052D          

 24 23  0  0  0  0            999 V2000
   -1.3161    1.2088    0.0000 C   0  0  0  0  0  0  0  0  0  0  0  0
   -0.5535    1.5233    0.0000 C   0  0  0  0  0  0  0  0  0  0  0  0
    0.1003    1.0200    0.0000 C   0  0  0  0  0  0  0  0  0  0  0  0
   -0.0087    0.2023    0.0000 C   0  0  0  0  0  0  0  0  0  0  0  0
   -0.7714   -0.1123    0.0000 C   0  0  0  0  0  0  0  0  0  0  0  0
    0.8630    1.3346    0.0000 C   0  0  0  0  0  0  0  0  0  0  0  0
    0.9719    2.1524    0.0000 O   0  0  0  0  0  0  0  0  0  0  0  0
    1.5167    0.8313    0.0000 O   0  0  0  0  0  0  0  0  0  0  0  0
    2.2794    1.1459    0.0000 C   0  0  0  0  0  0  0  0  0  0  0  0
    2.9331    0.6426    0.0000 C   0  0  0  0  0  0  0  0  0  0  0  0
    3.6958    0.9571    0.0000 O   0  0  0  0  0  0  0  0  0  0  0  0
    4.3496    0.4539    0.0000 C   0  0  0  0  0  0  0  0  0  0  0  0
    5.1122    0.7684    0.0000 C   0  0  0  0  0  0  0  0  0  0  0  0
    5.7660    0.2652    0.0000 O   0  0  0  0  0  0  0  0  0  0  0  0
    6.5287    0.5797    0.0000 C   0  0  0  0  0  0  0  0  0  0  0  0
    7.1824    0.0765    0.0000 C   0  0  0  0  0  0  0  0  0  0  0  0
    7.9451    0.3910    0.0000 O   0  0  0  0  0  0  0  0  0  0  0  0
    8.5988   -0.1123    0.0000 C   0  0  0  0  0  0  0  0  0  0  0  0
    8.4899   -0.9300    0.0000 O   0  0  0  0  0  0  0  0  0  0  0  0
    9.3615    0.2023    0.0000 C   0  0  0  0  0  0  0  0  0  0  0  0
   10.0153   -0.3010    0.0000 C   0  0  0  0  0  0  0  0  0  0  0  0
   10.7779    0.0136    0.0000 C   0  0  0  0  0  0  0  0  0  0  0  0
    9.4705    1.0200    0.0000 C   0  0  0  0  0  0  0  0  0  0  0  0
   10.2332    1.3346    0.0000 C   0  0  0  0  0  0  0  0  0  0  0  0
  1  2  1  0  0  0  0
  2  3  1  0  0  0  0
  3  4  1  0  0  0  0
  4  5  1  0  0  0  0
  3  6  1  0  0  0  0
  6  7  2  0  0  0  0
  6  8  1  0  0  0  0
  8  9  1  0  0  0  0
  9 10  1  0  0  0  0
 10 11  1  0  0  0  0
 11 12  1  0  0  0  0
 12 13  1  0  0  0  0
 13 14  1  0  0  0  0
 14 15  1  0  0  0  0
 15 16  1  0  0  0  0
 16 17  1  0  0  0  0
 17 18  1  0  0  0  0
 18 19  2  0  0  0  0
 18 20  1  0  0  0  0
 20 21  1  0  0  0  0
 21 22  1  0  0  0  0
 20 23  1  0  0  0  0
 23 24  1  0  0  0  0
M  END
> <ChemID>
201554

> <CAS>
95-08-9

> <Original_SMILES>
CCC(CC)C(=O)OCCOCCOCCOC(=O)C(CC)CC

> <preferred_name>


> <dsstox_substance_id>
DTXSID80861696

> <dsstox_compound_id>
DTXCID20810582

> <qc_level>


> <Canonical_QSARr>
CCC(CC)C(=O)OCCOCCOCCOC(=O)C(CC)CC

> <InChI_Code_QSARr>
InChI=1S/C18H34O6/c1-5-15(6-2)17(19)23-13-11-21-9-10-22-12-14-24-18(20)16(7-3)8-4/h15-16H,5-14H2,1-4H3

> <InChI Key_QSARr>
JEYLQCXBYFQJRO-UHFFFAOYSA-N

> <Salt_Solvent>


> <Salt_Solvent_ID>
0

> <MPID>
101346

> <Tr_1_Tst_0>
0

> <Ready_Biodeg>
1.0

$$$$
Row1312
  Mrv171c012251911052D          

  8  7  0  0  0  0            999 V2000
   -1.0725   -0.6626    0.0000 C   0  0  0  0  0  0  0  0  0  0  0  0
   -0.2475   -0.6626    0.0000 C   0  0  0  0  0  0  0  0  0  0  0  0
    0.1650    0.0519    0.0000 C   0  0  0  0  0  0  0  0  0  0  0  0
    0.9900    0.0519    0.0000 C   0  0  0  0  0  0  0  0  0  0  0  0
    1.4025    0.7663    0.0000 C   0  0  0  0  0  0  0  0  0  0  0  0
   -0.2475    0.7663    0.0000 C   0  0  0  0  0  0  0  0  0  0  0  0
    0.1650    1.4808    0.0000 O   0  0  0  0  0  0  0  0  0  0  0  0
   -1.0725    0.7663    0.0000 O   0  0  0  0  0  0  0  0  0  0  0  0
  1  2  1  0  0  0  0
  2  3  1  0  0  0  0
  3  4  1  0  0  0  0
  4  5  1  0  0  0  0
  3  6  1  0  0  0  0
  6  7  1  0  0  0  0
  6  8  2  0  0  0  0
M  END
> <ChemID>
201555

> <CAS>
88-09-5

> <Original_SMILES>
CCC(CC)C(O)=O

> <preferred_name>
2-Ethylbutyric acid

> <dsstox_substance_id>
DTXSID2041418

> <dsstox_compound_id>
DTXCID0021418

> <qc_level>


> <Canonical_QSARr>
CCC(CC)C(O)=O

> <InChI_Code_QSARr>
InChI=1S/C6H12O2/c1-3-5(4-2)6(7)8/h5H,3-4H2,1-2H3,(H,7,8)

> <InChI Key_QSARr>
OXQGTIUCKGYOAA-UHFFFAOYSA-N

> <Salt_Solvent>


> <Salt_Solvent_ID>
0

> <MPID>
101347

> <Tr_1_Tst_0>
1

> <Ready_Biodeg>
1.0

$$$$
Row1313
  Mrv171c012251911052D          

 21 20  0  0  0  0            999 V2000
   -1.0489   -1.1659    0.0000 C   0  0  0  0  0  0  0  0  0  0  0  0
   -0.3345   -0.7534    0.0000 C   0  0  0  0  0  0  0  0  0  0  0  0
   -0.3345    0.0716    0.0000 C   0  0  0  0  0  0  0  0  0  0  0  0
    0.4905    0.0716    0.0000 C   0  0  0  0  0  0  0  0  0  0  0  0
    0.9030   -0.6429    0.0000 O   0  0  0  0  0  0  0  0  0  0  0  0
    1.7280   -0.6429    0.0000 C   0  0  0  0  0  0  0  0  0  0  0  0
    2.1405    0.0716    0.0000 O   0  0  0  0  0  0  0  0  0  0  0  0
    2.1405   -1.3573    0.0000 C   0  0  0  0  0  0  0  0  0  0  0  0
    2.9655   -1.3573    0.0000 C   0  0  0  0  0  0  0  0  0  0  0  0
   -1.1595    0.0716    0.0000 C   0  0  0  0  0  0  0  0  0  0  0  0
   -1.5720    0.7861    0.0000 O   0  0  0  0  0  0  0  0  0  0  0  0
   -2.3970    0.7861    0.0000 C   0  0  0  0  0  0  0  0  0  0  0  0
   -2.8095    0.0716    0.0000 O   0  0  0  0  0  0  0  0  0  0  0  0
   -2.8095    1.5005    0.0000 C   0  0  0  0  0  0  0  0  0  0  0  0
   -3.6345    1.5005    0.0000 C   0  0  0  0  0  0  0  0  0  0  0  0
   -0.3345    0.8966    0.0000 C   0  0  0  0  0  0  0  0  0  0  0  0
    0.3800    1.3091    0.0000 O   0  0  0  0  0  0  0  0  0  0  0  0
    1.0945    0.8966    0.0000 C   0  0  0  0  0  0  0  0  0  0  0  0
    1.0945    0.0716    0.0000 O   0  0  0  0  0  0  0  0  0  0  0  0
    1.8090    1.3091    0.0000 C   0  0  0  0  0  0  0  0  0  0  0  0
    2.5234    0.8966    0.0000 C   0  0  0  0  0  0  0  0  0  0  0  0
  1  2  1  0  0  0  0
  2  3  1  0  0  0  0
  3  4  1  0  0  0  0
  4  5  1  0  0  0  0
  5  6  1  0  0  0  0
  6  7  2  0  0  0  0
  6  8  1  0  0  0  0
  8  9  2  0  0  0  0
  3 10  1  0  0  0  0
 10 11  1  0  0  0  0
 11 12  1  0  0  0  0
 12 13  2  0  0  0  0
 12 14  1  0  0  0  0
 14 15  2  0  0  0  0
  3 16  1  0  0  0  0
 16 17  1  0  0  0  0
 17 18  1  0  0  0  0
 18 19  2  0  0  0  0
 18 20  1  0  0  0  0
 20 21  2  0  0  0  0
M  END
> <ChemID>
201558

> <CAS>
15625-89-5

> <Original_SMILES>
CCC(COC(=O)C=C)(COC(=O)C=C)COC(=O)C=C

> <preferred_name>
Trimethylolpropane triacrylate

> <dsstox_substance_id>
DTXSID0027773

> <dsstox_compound_id>
DTXCID407773

> <qc_level>


> <Canonical_QSARr>
CCC(COC(=O)C=C)(COC(=O)C=C)COC(=O)C=C

> <InChI_Code_QSARr>
InChI=1S/C15H20O6/c1-5-12(16)19-9-15(8-4,10-20-13(17)6-2)11-21-14(18)7-3/h5-7H,1-3,8-11H2,4H3

> <InChI Key_QSARr>
DAKWPKUUDNSNPN-UHFFFAOYSA-N

> <Salt_Solvent>


> <Salt_Solvent_ID>
0

> <MPID>
101348

> <Tr_1_Tst_0>
0

> <Ready_Biodeg>
0.0

$$$$
Row1314
  Mrv171c012251911052D          

 17 16  0  0  0  0            999 V2000
    1.4640    0.0243    0.0000 C   0  0  0  0  0  0  0  0  0  0  0  0
    0.7495    0.4368    0.0000 C   0  0  0  0  0  0  0  0  0  0  0  0
    0.0351    0.0243    0.0000 C   0  0  0  0  0  0  0  0  0  0  0  0
   -0.3774    0.7387    0.0000 C   0  0  0  0  0  0  0  0  0  0  0  0
   -1.2024    0.7387    0.0000 O   0  0  0  0  0  0  0  0  0  0  0  0
    0.4476   -0.6902    0.0000 C   0  0  0  0  0  0  0  0  0  0  0  0
    0.0351   -1.4047    0.0000 O   0  0  0  0  0  0  0  0  0  0  0  0
   -0.6794   -0.3882    0.0000 C   0  0  0  0  0  0  0  0  0  0  0  0
   -1.3939    0.0243    0.0000 O   0  0  0  0  0  0  0  0  0  0  0  0
   -2.1084   -0.3882    0.0000 C   0  0  0  0  0  0  0  0  0  0  0  0
   -2.8228    0.0243    0.0000 C   0  0  0  0  0  0  0  0  0  0  0  0
   -3.5373    0.4368    0.0000 C   0  0  0  0  0  0  0  0  0  0  0  0
   -4.2518    0.0243    0.0000 C   0  0  0  0  0  0  0  0  0  0  0  0
   -2.4103    0.7387    0.0000 C   0  0  0  0  0  0  0  0  0  0  0  0
   -2.8228    1.4532    0.0000 O   0  0  0  0  0  0  0  0  0  0  0  0
   -3.2353   -0.6902    0.0000 C   0  0  0  0  0  0  0  0  0  0  0  0
   -4.0603   -0.6902    0.0000 O   0  0  0  0  0  0  0  0  0  0  0  0
  1  2  1  0  0  0  0
  2  3  1  0  0  0  0
  3  4  1  0  0  0  0
  4  5  1  0  0  0  0
  3  6  1  0  0  0  0
  6  7  1  0  0  0  0
  3  8  1  0  0  0  0
  8  9  1  0  0  0  0
  9 10  1  0  0  0  0
 10 11  1  0  0  0  0
 11 12  1  0  0  0  0
 12 13  1  0  0  0  0
 11 14  1  0  0  0  0
 14 15  1  0  0  0  0
 11 16  1  0  0  0  0
 16 17  1  0  0  0  0
M  END
> <ChemID>
201559

> <CAS>
23235-61-2

> <Original_SMILES>
CCC(COCC(CO)(CO)CC)(CO)CO

> <preferred_name>
2,2'-(Oxydimethanediyl)bis(2-ethylpropane-1,3-diol)

> <dsstox_substance_id>
DTXSID9044879

> <dsstox_compound_id>
DTXCID7024879

> <qc_level>


> <Canonical_QSARr>
CCC(COCC(CO)(CO)CC)(CO)CO

> <InChI_Code_QSARr>
InChI=1S/C12H26O5/c1-3-11(5-13,6-14)9-17-10-12(4-2,7-15)8-16/h13-16H,3-10H2,1-2H3

> <InChI Key_QSARr>
WMYINDVYGQKYMI-UHFFFAOYSA-N

> <Salt_Solvent>


> <Salt_Solvent_ID>
0

> <MPID>
101349

> <Tr_1_Tst_0>
1

> <Ready_Biodeg>
0.0

$$$$
Row1315
  Mrv171c012251911052D          

  8  7  0  0  0  0            999 V2000
    1.5837    0.1718    0.0000 C   0  0  0  0  0  0  0  0  0  0  0  0
    0.8692   -0.2407    0.0000 C   0  0  0  0  0  0  0  0  0  0  0  0
    0.1547    0.1718    0.0000 C   0  0  0  0  0  0  0  0  0  0  0  0
    0.5672    0.8863    0.0000 N   0  0  0  0  0  0  0  0  0  0  0  0
   -0.5598    0.5843    0.0000 C   0  0  0  0  0  0  0  0  0  0  0  0
   -1.2742    0.1718    0.0000 O   0  0  0  0  0  0  0  0  0  0  0  0
   -0.2578   -0.5427    0.0000 C   0  0  0  0  0  0  0  0  0  0  0  0
   -1.0828   -0.5427    0.0000 O   0  0  0  0  0  0  0  0  0  0  0  0
  1  2  1  0  0  0  0
  2  3  1  0  0  0  0
  3  4  1  0  0  0  0
  3  5  1  0  0  0  0
  5  6  1  0  0  0  0
  3  7  1  0  0  0  0
  7  8  1  0  0  0  0
M  END
> <ChemID>
201561

> <CAS>
115-70-8

> <Original_SMILES>
CCC(N)(CO)CO

> <preferred_name>
2-Amino-2-ethyl-1,3-propanediol

> <dsstox_substance_id>
DTXSID3029150

> <dsstox_compound_id>
DTXCID609150

> <qc_level>


> <Canonical_QSARr>
CCC(N)(CO)CO

> <InChI_Code_QSARr>
InChI=1S/C5H13NO2/c1-2-5(6,3-7)4-8/h7-8H,2-4,6H2,1H3

> <InChI Key_QSARr>
IOAOAKDONABGPZ-UHFFFAOYSA-N

> <Salt_Solvent>


> <Salt_Solvent_ID>
0

> <MPID>
101350

> <Tr_1_Tst_0>
1

> <Ready_Biodeg>
0.0

$$$$
Row1316
  Mrv171c012251911052D          

  6  5  0  0  0  0            999 V2000
    1.2438   -0.6486    0.0000 C   0  0  0  0  0  0  0  0  0  0  0  0
    0.8313    0.0659    0.0000 C   0  0  0  0  0  0  0  0  0  0  0  0
    0.0063    0.0659    0.0000 C   0  0  0  0  0  0  0  0  0  0  0  0
   -0.4062   -0.6486    0.0000 O   0  0  0  0  0  0  0  0  0  0  0  0
   -0.4062    0.7804    0.0000 C   0  0  0  0  0  0  0  0  0  0  0  0
   -1.2312    0.7804    0.0000 O   0  0  0  0  0  0  0  0  0  0  0  0
  1  2  1  0  0  0  0
  2  3  1  0  0  0  0
  3  4  1  0  0  0  0
  3  5  1  0  0  0  0
  5  6  1  0  0  0  0
M  END
> <ChemID>
201562

> <CAS>
584-03-2

> <Original_SMILES>
CCC(O)CO

> <preferred_name>
1,2-Butanediol

> <dsstox_substance_id>
DTXSID6040375

> <dsstox_compound_id>
DTXCID4020375

> <qc_level>


> <Canonical_QSARr>
CCC(O)CO

> <InChI_Code_QSARr>
InChI=1S/C4H10O2/c1-2-4(6)3-5/h4-6H,2-3H2,1H3

> <InChI Key_QSARr>
BMRWNKZVCUKKSR-UHFFFAOYSA-N

> <Salt_Solvent>


> <Salt_Solvent_ID>
0

> <MPID>
101351

> <Tr_1_Tst_0>
0

> <Ready_Biodeg>
1.0

$$$$
Row1317
  Mrv171c012251911052D          

 17 18  0  0  0  0            999 V2000
    0.8392    1.2007    0.0000 C   0  0  0  0  0  0  0  0  0  0  0  0
    1.1214    0.4254    0.0000 C   0  0  0  0  0  0  0  0  0  0  0  0
    0.5911   -0.2065    0.0000 C   0  0  0  0  0  0  0  0  0  0  0  0
   -0.1234   -0.6190    0.0000 C   0  0  0  0  0  0  0  0  0  0  0  0
   -0.8379   -0.2065    0.0000 O   0  0  0  0  0  0  0  0  0  0  0  0
   -0.1234   -1.4440    0.0000 N   0  0  0  0  0  0  0  0  0  0  0  0
    0.5911   -1.8565    0.0000 C   0  0  0  0  0  0  0  0  0  0  0  0
    0.5911   -2.6815    0.0000 O   0  0  0  0  0  0  0  0  0  0  0  0
    1.3056   -1.4440    0.0000 N   0  0  0  0  0  0  0  0  0  0  0  0
    1.3056   -0.6190    0.0000 C   0  0  0  0  0  0  0  0  0  0  0  0
    2.0200   -0.2065    0.0000 O   0  0  0  0  0  0  0  0  0  0  0  0
    0.0608    0.4254    0.0000 C   0  0  0  0  0  0  0  0  0  0  0  0
    0.3429    1.2007    0.0000 C   0  0  0  0  0  0  0  0  0  0  0  0
   -0.1874    1.8327    0.0000 C   0  0  0  0  0  0  0  0  0  0  0  0
   -0.9998    1.6894    0.0000 C   0  0  0  0  0  0  0  0  0  0  0  0
   -1.2820    0.9142    0.0000 C   0  0  0  0  0  0  0  0  0  0  0  0
   -0.7517    0.2822    0.0000 C   0  0  0  0  0  0  0  0  0  0  0  0
  1  2  1  0  0  0  0
  2  3  1  0  0  0  0
  4  3  1  0  0  0  0
  4  5  2  0  0  0  0
  6  4  1  0  0  0  0
  7  6  1  0  0  0  0
  7  8  2  0  0  0  0
  9  7  1  0  0  0  0
 10  9  1  0  0  0  0
  3 10  1  0  0  0  0
 10 11  2  0  0  0  0
  3 12  1  0  0  0  0
 13 12  2  0  0  0  0
 14 13  1  0  0  0  0
 15 14  2  0  0  0  0
 16 15  1  0  0  0  0
 17 16  2  0  0  0  0
 12 17  1  0  0  0  0
M  END
> <ChemID>
201563

> <CAS>
50-06-6

> <Original_SMILES>
CCC1(c2ccccc2)C(=O)NC(=O)NC1=O

> <preferred_name>
Phenobarbital

> <dsstox_substance_id>
DTXSID5021122

> <dsstox_compound_id>
DTXCID701122

> <qc_level>


> <Canonical_QSARr>
CCC1(C2C=CC=CC=2)C(=O)NC(=O)NC1=O

> <InChI_Code_QSARr>
InChI=1S/C12H12N2O3/c1-2-12(8-6-4-3-5-7-8)9(15)13-11(17)14-10(12)16/h3-7H,2H2,1H3,(H2,13,14,15,16,17)

> <InChI Key_QSARr>
DDBREPKUVSBGFI-UHFFFAOYSA-N

> <Salt_Solvent>


> <Salt_Solvent_ID>
0

> <MPID>
101352

> <Tr_1_Tst_0>
1

> <Ready_Biodeg>
0.0

$$$$
Row1318
  Mrv171c012251911052D          

  8  8  0  0  0  0            999 V2000
    0.3940    1.2353    0.0000 C   0  0  0  0  0  0  0  0  0  0  0  0
   -0.3205    0.8228    0.0000 C   0  0  0  0  0  0  0  0  0  0  0  0
   -0.3205   -0.0022    0.0000 C   0  0  0  0  0  0  0  0  0  0  0  0
   -1.0350   -0.4147    0.0000 C   0  0  0  0  0  0  0  0  0  0  0  0
   -1.0350   -1.2397    0.0000 C   0  0  0  0  0  0  0  0  0  0  0  0
   -0.3205   -1.6522    0.0000 C   0  0  0  0  0  0  0  0  0  0  0  0
    0.3940   -1.2397    0.0000 C   0  0  0  0  0  0  0  0  0  0  0  0
    0.3940   -0.4147    0.0000 C   0  0  0  0  0  0  0  0  0  0  0  0
  1  2  1  0  0  0  0
  2  3  1  0  0  0  0
  4  3  1  0  0  0  0
  5  4  1  0  0  0  0
  6  5  1  0  0  0  0
  7  6  1  0  0  0  0
  8  7  1  0  0  0  0
  3  8  1  0  0  0  0
M  END
> <ChemID>
201564

> <CAS>
1678-91-7

> <Original_SMILES>
CCC1CCCCC1

> <preferred_name>
Ethylcyclohexane

> <dsstox_substance_id>
DTXSID1051779

> <dsstox_compound_id>
DTXCID4030334

> <qc_level>


> <Canonical_QSARr>
CCC1CCCCC1

> <InChI_Code_QSARr>
InChI=1S/C8H16/c1-2-8-6-4-3-5-7-8/h8H,2-7H2,1H3

> <InChI Key_QSARr>
IIEWJVIFRVWJOD-UHFFFAOYSA-N

> <Salt_Solvent>


> <Salt_Solvent_ID>
0

> <MPID>
101353

> <Tr_1_Tst_0>
1

> <Ready_Biodeg>
0.0

$$$$
Row1319
  Mrv171c012251911052D          

  7  6  0  0  0  0            999 V2000
    2.0625    0.7145    0.0000 C   0  0  0  0  0  0  0  0  0  0  0  0
    1.2375    0.7145    0.0000 C   0  0  0  0  0  0  0  0  0  0  0  0
    0.8250    0.0000    0.0000 C   0  0  0  0  0  0  0  0  0  0  0  0
    0.0000    0.0000    0.0000 C   0  0  0  0  0  0  0  0  0  0  0  0
   -0.4125   -0.7145    0.0000 C   0  0  0  0  0  0  0  0  0  0  0  0
   -1.2375   -0.7145    0.0000 C   0  0  0  0  0  0  0  0  0  0  0  0
   -1.6500   -1.4289    0.0000 O   0  0  0  0  0  0  0  0  0  0  0  0
  1  2  1  0  0  0  0
  3  2  1  4  0  0  0
  3  4  2  0  0  0  0
  4  5  1  0  0  0  0
  5  6  1  0  0  0  0
  6  7  1  0  0  0  0
M  END
> <ChemID>
201566

> <CAS>
928-96-1

> <Original_SMILES>
CC/C=C/CCO

> <preferred_name>
(Z)-3-Hexen-1-ol

> <dsstox_substance_id>
DTXSID6022137

> <dsstox_compound_id>
DTXCID102137

> <qc_level>


> <Canonical_QSARr>
CCC=CCCO

> <InChI_Code_QSARr>
InChI=1S/C6H12O/c1-2-3-4-5-6-7/h3-4,7H,2,5-6H2,1H3

> <InChI Key_QSARr>
UFLHIIWVXFIJGU-UHFFFAOYSA-N

> <Salt_Solvent>


> <Salt_Solvent_ID>
0

> <MPID>
101354

> <Tr_1_Tst_0>
0

> <Ready_Biodeg>
1.0

$$$$
Row1320
  Mrv171c012251911052D          

  6  5  0  0  0  0            999 V2000
    1.0187    1.5423    0.0000 C   0  0  0  0  0  0  0  0  0  0  0  0
    0.6062    0.8278    0.0000 C   0  0  0  0  0  0  0  0  0  0  0  0
    1.0187    0.1133    0.0000 C   0  0  0  0  0  0  0  0  0  0  0  0
    0.6062   -0.6011    0.0000 C   0  0  0  0  0  0  0  0  0  0  0  0
    1.0187   -1.3156    0.0000 C   0  0  0  0  0  0  0  0  0  0  0  0
   -0.2188   -0.6011    0.0000 C   0  0  0  0  0  0  0  0  0  0  0  0
  1  2  1  0  0  0  0
  2  3  1  0  0  0  0
  3  4  1  0  0  0  0
  4  5  1  0  0  0  0
  4  6  1  0  0  0  0
M  END
> <ChemID>
201568

> <CAS>
107-83-5

> <Original_SMILES>
CCCC(C)C

> <preferred_name>
2-Methylpentane

> <dsstox_substance_id>
DTXSID4029143

> <dsstox_compound_id>
DTXCID509143

> <qc_level>


> <Canonical_QSARr>
CCCC(C)C

> <InChI_Code_QSARr>
InChI=1S/C6H14/c1-4-5-6(2)3/h6H,4-5H2,1-3H3

> <InChI Key_QSARr>
AFABGHUZZDYHJO-UHFFFAOYSA-N

> <Salt_Solvent>


> <Salt_Solvent_ID>
0

> <MPID>
101355

> <Tr_1_Tst_0>
1

> <Ready_Biodeg>
1.0

$$$$
Row1321
  Mrv171c012251911052D          

 11 11  0  0  0  0            999 V2000
    0.1299    0.4500    0.0000 N   0  0  0  0  0  0  0  0  0  0  0  0
   -0.5846    0.8625    0.0000 C   0  0  0  0  0  0  0  0  0  0  0  0
   -0.5846    1.6875    0.0000 S   0  0  0  0  0  0  0  0  0  0  0  0
   -1.2990    0.4500    0.0000 N   0  0  0  0  0  0  0  0  0  0  0  0
   -1.2990   -0.3750    0.0000 C   0  0  0  0  0  0  0  0  0  0  0  0
   -2.0135   -0.7875    0.0000 O   0  0  0  0  0  0  0  0  0  0  0  0
   -0.5846   -0.7875    0.0000 C   0  0  0  0  0  0  0  0  0  0  0  0
    0.1299   -0.3750    0.0000 C   0  0  0  0  0  0  0  0  0  0  0  0
    0.8444   -0.7875    0.0000 C   0  0  0  0  0  0  0  0  0  0  0  0
    0.8444   -1.6125    0.0000 C   0  0  0  0  0  0  0  0  0  0  0  0
    1.5589   -2.0250    0.0000 C   0  0  0  0  0  0  0  0  0  0  0  0
  2  1  1  0  0  0  0
  2  3  2  0  0  0  0
  4  2  1  0  0  0  0
  5  4  1  0  0  0  0
  5  6  2  0  0  0  0
  7  5  1  0  0  0  0
  8  7  1  0  0  0  0
  1  8  2  0  0  0  0
  8  9  1  0  0  0  0
  9 10  1  0  0  0  0
 10 11  1  0  0  0  0
M  END
> <ChemID>
201569

> <CAS>
51-52-5

> <Original_SMILES>
CCCC1=CC(=O)NC(=S)N1

> <preferred_name>
6-Propyl-2-thiouracil

> <dsstox_substance_id>
DTXSID5021209

> <dsstox_compound_id>
DTXCID101209

> <qc_level>


> <Canonical_QSARr>
CCCC1CC(=O)NC(=S)N=1

> <InChI_Code_QSARr>
InChI=1S/C7H10N2OS/c1-2-3-5-4-6(10)9-7(11)8-5/h2-4H2,1H3,(H,9,10,11)

> <InChI Key_QSARr>
PEMYLVZMVSILDL-UHFFFAOYSA-N

> <Salt_Solvent>


> <Salt_Solvent_ID>
0

> <MPID>
101356

> <Tr_1_Tst_0>
1

> <Ready_Biodeg>
0.0

$$$$
Row1322
  Mrv171c012251911052D          

 33 32  0  0  0  0            999 V2000
   -6.3036    1.8574    0.0000 C   0  0  0  0  0  0  0  0  0  0  0  0
   -5.5892    1.4449    0.0000 C   0  0  0  0  0  0  0  0  0  0  0  0
   -4.8747    1.8574    0.0000 C   0  0  0  0  0  0  0  0  0  0  0  0
   -4.1602    1.4449    0.0000 C   0  0  0  0  0  0  0  0  0  0  0  0
   -3.4458    1.8574    0.0000 C   0  0  0  0  0  0  0  0  0  0  0  0
   -3.4458    2.6824    0.0000 C   0  0  0  0  0  0  0  0  0  0  0  0
   -2.7313    3.0949    0.0000 C   0  0  0  0  0  0  0  0  0  0  0  0
   -2.7313    1.4449    0.0000 C   0  0  0  0  0  0  0  0  0  0  0  0
   -2.7313    0.6199    0.0000 O   0  0  0  0  0  0  0  0  0  0  0  0
   -2.0168    1.8574    0.0000 O   0  0  0  0  0  0  0  0  0  0  0  0
   -1.3023    1.4449    0.0000 C   0  0  0  0  0  0  0  0  0  0  0  0
   -0.5879    1.8574    0.0000 C   0  0  0  0  0  0  0  0  0  0  0  0
    0.1266    1.4449    0.0000 C   0  0  0  0  0  0  0  0  0  0  0  0
    0.8411    1.8574    0.0000 O   0  0  0  0  0  0  0  0  0  0  0  0
    1.5555    1.4449    0.0000 C   0  0  0  0  0  0  0  0  0  0  0  0
    1.5555    0.6199    0.0000 O   0  0  0  0  0  0  0  0  0  0  0  0
    2.2700    1.8574    0.0000 C   0  0  0  0  0  0  0  0  0  0  0  0
    2.2700    2.6824    0.0000 C   0  0  0  0  0  0  0  0  0  0  0  0
    2.9845    3.0949    0.0000 C   0  0  0  0  0  0  0  0  0  0  0  0
    2.9845    1.4449    0.0000 C   0  0  0  0  0  0  0  0  0  0  0  0
    3.6990    1.8574    0.0000 C   0  0  0  0  0  0  0  0  0  0  0  0
    4.4134    1.4449    0.0000 C   0  0  0  0  0  0  0  0  0  0  0  0
    5.1279    1.8574    0.0000 C   0  0  0  0  0  0  0  0  0  0  0  0
   -0.5879    2.6824    0.0000 O   0  0  0  0  0  0  0  0  0  0  0  0
   -1.3023    3.0949    0.0000 C   0  0  0  0  0  0  0  0  0  0  0  0
   -2.0168    2.6824    0.0000 O   0  0  0  0  0  0  0  0  0  0  0  0
   -1.3023    3.9199    0.0000 C   0  0  0  0  0  0  0  0  0  0  0  0
   -0.5879    4.3324    0.0000 C   0  0  0  0  0  0  0  0  0  0  0  0
   -0.5879    5.1574    0.0000 C   0  0  0  0  0  0  0  0  0  0  0  0
   -2.0168    4.3324    0.0000 C   0  0  0  0  0  0  0  0  0  0  0  0
   -2.0168    5.1574    0.0000 C   0  0  0  0  0  0  0  0  0  0  0  0
   -2.7313    5.5699    0.0000 C   0  0  0  0  0  0  0  0  0  0  0  0
   -2.7313    6.3949    0.0000 C   0  0  0  0  0  0  0  0  0  0  0  0
  1  2  1  0  0  0  0
  2  3  1  0  0  0  0
  3  4  1  0  0  0  0
  4  5  1  0  0  0  0
  5  6  1  0  0  0  0
  6  7  1  0  0  0  0
  5  8  1  0  0  0  0
  8  9  2  0  0  0  0
  8 10  1  0  0  0  0
 10 11  1  0  0  0  0
 11 12  1  0  0  0  0
 12 13  1  0  0  0  0
 13 14  1  0  0  0  0
 14 15  1  0  0  0  0
 15 16  2  0  0  0  0
 15 17  1  0  0  0  0
 17 18  1  0  0  0  0
 18 19  1  0  0  0  0
 17 20  1  0  0  0  0
 20 21  1  0  0  0  0
 21 22  1  0  0  0  0
 22 23  1  0  0  0  0
 12 24  1  0  0  0  0
 24 25  1  0  0  0  0
 25 26  2  0  0  0  0
 25 27  1  0  0  0  0
 27 28  1  0  0  0  0
 28 29  1  0  0  0  0
 27 30  1  0  0  0  0
 30 31  1  0  0  0  0
 31 32  1  0  0  0  0
 32 33  1  0  0  0  0
M  END
> <ChemID>
201572

> <CAS>
7360-38-5

> <Original_SMILES>
CCCCC(CC)C(=O)OC(COC(=O)C(CCCC)CC)COC(=O)C(CCCC)CC

> <preferred_name>


> <dsstox_substance_id>
DTXSID00864043

> <dsstox_compound_id>
DTXCID70812596

> <qc_level>


> <Canonical_QSARr>
CCCCC(CC)C(=O)OC(COC(=O)C(CCCC)CC)COC(=O)C(CCCC)CC

> <InChI_Code_QSARr>
InChI=1S/C27H50O6/c1-7-13-16-21(10-4)25(28)31-19-24(33-27(30)23(12-6)18-15-9-3)20-32-26(29)22(11-5)17-14-8-2/h21-24H,7-20H2,1-6H3

> <InChI Key_QSARr>
DGSZGZSCHSQXFV-UHFFFAOYSA-N

> <Salt_Solvent>


> <Salt_Solvent_ID>
0

> <MPID>
101357

> <Tr_1_Tst_0>
1

> <Ready_Biodeg>
1.0

$$$$
Row1323
  Mrv171c012251911052D          

 45 44  0  0  0  0            999 V2000
   -5.1645    1.5040    0.0000 C   0  0  0  0  0  0  0  0  0  0  0  0
   -4.3395    1.5040    0.0000 C   0  0  0  0  0  0  0  0  0  0  0  0
   -3.9270    0.7896    0.0000 C   0  0  0  0  0  0  0  0  0  0  0  0
   -3.1020    0.7896    0.0000 C   0  0  0  0  0  0  0  0  0  0  0  0
   -2.6895    0.0751    0.0000 C   0  0  0  0  0  0  0  0  0  0  0  0
   -3.1020   -0.6394    0.0000 C   0  0  0  0  0  0  0  0  0  0  0  0
   -2.6895   -1.3539    0.0000 C   0  0  0  0  0  0  0  0  0  0  0  0
   -1.8645    0.0751    0.0000 C   0  0  0  0  0  0  0  0  0  0  0  0
   -1.4520    0.7896    0.0000 O   0  0  0  0  0  0  0  0  0  0  0  0
   -1.4520   -0.6394    0.0000 O   0  0  0  0  0  0  0  0  0  0  0  0
   -0.6270   -0.6394    0.0000 C   0  0  0  0  0  0  0  0  0  0  0  0
   -0.2145    0.0751    0.0000 C   0  0  0  0  0  0  0  0  0  0  0  0
    0.1980    0.7896    0.0000 C   0  0  0  0  0  0  0  0  0  0  0  0
    1.0230    0.7896    0.0000 O   0  0  0  0  0  0  0  0  0  0  0  0
    1.4355    0.0751    0.0000 C   0  0  0  0  0  0  0  0  0  0  0  0
    1.0230   -0.6394    0.0000 O   0  0  0  0  0  0  0  0  0  0  0  0
    2.2605    0.0751    0.0000 C   0  0  0  0  0  0  0  0  0  0  0  0
    2.6730    0.7896    0.0000 C   0  0  0  0  0  0  0  0  0  0  0  0
    3.4980    0.7896    0.0000 C   0  0  0  0  0  0  0  0  0  0  0  0
    2.6730   -0.6394    0.0000 C   0  0  0  0  0  0  0  0  0  0  0  0
    3.4980   -0.6394    0.0000 C   0  0  0  0  0  0  0  0  0  0  0  0
    3.9105   -1.3539    0.0000 C   0  0  0  0  0  0  0  0  0  0  0  0
    4.7355   -1.3539    0.0000 C   0  0  0  0  0  0  0  0  0  0  0  0
    0.5000   -0.3374    0.0000 C   0  0  0  0  0  0  0  0  0  0  0  0
    0.5000   -1.1624    0.0000 O   0  0  0  0  0  0  0  0  0  0  0  0
   -0.2145   -1.5749    0.0000 C   0  0  0  0  0  0  0  0  0  0  0  0
   -0.9290   -1.1624    0.0000 O   0  0  0  0  0  0  0  0  0  0  0  0
   -0.2145   -2.3999    0.0000 C   0  0  0  0  0  0  0  0  0  0  0  0
    0.5000   -2.8124    0.0000 C   0  0  0  0  0  0  0  0  0  0  0  0
    1.2144   -2.3999    0.0000 C   0  0  0  0  0  0  0  0  0  0  0  0
   -0.9290   -2.8124    0.0000 C   0  0  0  0  0  0  0  0  0  0  0  0
   -1.6435   -2.3999    0.0000 C   0  0  0  0  0  0  0  0  0  0  0  0
   -2.3579   -2.8124    0.0000 C   0  0  0  0  0  0  0  0  0  0  0  0
   -3.0724   -2.3999    0.0000 C   0  0  0  0  0  0  0  0  0  0  0  0
   -0.9290    0.4876    0.0000 C   0  0  0  0  0  0  0  0  0  0  0  0
   -0.9290    1.3126    0.0000 O   0  0  0  0  0  0  0  0  0  0  0  0
   -0.2145    1.7251    0.0000 C   0  0  0  0  0  0  0  0  0  0  0  0
    0.5000    1.3126    0.0000 O   0  0  0  0  0  0  0  0  0  0  0  0
   -0.2145    2.5501    0.0000 C   0  0  0  0  0  0  0  0  0  0  0  0
   -0.9290    2.9626    0.0000 C   0  0  0  0  0  0  0  0  0  0  0  0
   -1.6435    2.5501    0.0000 C   0  0  0  0  0  0  0  0  0  0  0  0
    0.5000    2.9626    0.0000 C   0  0  0  0  0  0  0  0  0  0  0  0
    1.2144    2.5501    0.0000 C   0  0  0  0  0  0  0  0  0  0  0  0
    1.9289    2.9626    0.0000 C   0  0  0  0  0  0  0  0  0  0  0  0
    2.6434    2.5501    0.0000 C   0  0  0  0  0  0  0  0  0  0  0  0
  1  2  1  0  0  0  0
  2  3  1  0  0  0  0
  3  4  1  0  0  0  0
  4  5  1  0  0  0  0
  5  6  1  0  0  0  0
  6  7  1  0  0  0  0
  5  8  1  0  0  0  0
  8  9  2  0  0  0  0
  8 10  1  0  0  0  0
 10 11  1  0  0  0  0
 11 12  1  0  0  0  0
 12 13  1  0  0  0  0
 13 14  1  0  0  0  0
 14 15  1  0  0  0  0
 15 16  2  0  0  0  0
 15 17  1  0  0  0  0
 17 18  1  0  0  0  0
 18 19  1  0  0  0  0
 17 20  1  0  0  0  0
 20 21  1  0  0  0  0
 21 22  1  0  0  0  0
 22 23  1  0  0  0  0
 12 24  1  0  0  0  0
 24 25  1  0  0  0  0
 25 26  1  0  0  0  0
 26 27  2  0  0  0  0
 26 28  1  0  0  0  0
 28 29  1  0  0  0  0
 29 30  1  0  0  0  0
 28 31  1  0  0  0  0
 31 32  1  0  0  0  0
 32 33  1  0  0  0  0
 33 34  1  0  0  0  0
 12 35  1  0  0  0  0
 35 36  1  0  0  0  0
 36 37  1  0  0  0  0
 37 38  2  0  0  0  0
 37 39  1  0  0  0  0
 39 40  1  0  0  0  0
 40 41  1  0  0  0  0
 39 42  1  0  0  0  0
 42 43  1  0  0  0  0
 43 44  1  0  0  0  0
 44 45  1  0  0  0  0
M  END
> <ChemID>
201573

> <CAS>
7299-99-2

> <Original_SMILES>
CCCCC(CC)C(=O)OCC(COC(=O)C(CCCC)CC)(COC(=O)C(CCCC)CC)COC(=O)C(CCCC)CC

> <preferred_name>


> <dsstox_substance_id>
DTXSID90864037

> <dsstox_compound_id>
DTXCID70812591

> <qc_level>


> <Canonical_QSARr>
CCCCC(CC)C(=O)OCC(COC(=O)C(CCCC)CC)(COC(=O)C(CCCC)CC)COC(=O)C(CCCC)CC

> <InChI_Code_QSARr>
InChI=1S/C37H68O8/c1-9-17-21-29(13-5)33(38)42-25-37(26-43-34(39)30(14-6)22-18-10-2,27-44-35(40)31(15-7)23-19-11-3)28-45-36(41)32(16-8)24-20-12-4/h29-32H,9-28H2,1-8H3

> <InChI Key_QSARr>
DRRMRHKHTQRWMB-UHFFFAOYSA-N

> <Salt_Solvent>


> <Salt_Solvent_ID>
0

> <MPID>
101358

> <Tr_1_Tst_0>
1

> <Ready_Biodeg>
0.0

$$$$
Row1324
  Mrv171c012251911052D          

 11 10  0  0  0  0            999 V2000
    3.0136    0.1265    0.0000 C   0  0  0  0  0  0  0  0  0  0  0  0
    2.2991   -0.2860    0.0000 C   0  0  0  0  0  0  0  0  0  0  0  0
    1.5846    0.1265    0.0000 C   0  0  0  0  0  0  0  0  0  0  0  0
    0.8702   -0.2860    0.0000 C   0  0  0  0  0  0  0  0  0  0  0  0
    0.1557    0.1265    0.0000 C   0  0  0  0  0  0  0  0  0  0  0  0
   -0.5588    0.5390    0.0000 C   0  0  0  0  0  0  0  0  0  0  0  0
   -1.2733    0.1265    0.0000 C   0  0  0  0  0  0  0  0  0  0  0  0
    0.5682    0.8409    0.0000 C   0  0  0  0  0  0  0  0  0  0  0  0
    0.1557    1.5554    0.0000 O   0  0  0  0  0  0  0  0  0  0  0  0
   -0.2568   -0.5880    0.0000 C   0  0  0  0  0  0  0  0  0  0  0  0
   -1.0818   -0.5880    0.0000 O   0  0  0  0  0  0  0  0  0  0  0  0
  1  2  1  0  0  0  0
  2  3  1  0  0  0  0
  3  4  1  0  0  0  0
  4  5  1  0  0  0  0
  5  6  1  0  0  0  0
  6  7  1  0  0  0  0
  5  8  1  0  0  0  0
  8  9  1  0  0  0  0
  5 10  1  0  0  0  0
 10 11  1  0  0  0  0
M  END
> <ChemID>
201574

> <CAS>
115-84-4

> <Original_SMILES>
CCCCC(CO)(CO)CC

> <preferred_name>
2-Butyl-2-ethyl-1,3-propanediol

> <dsstox_substance_id>
DTXSID8041400

> <dsstox_compound_id>
DTXCID6021400

> <qc_level>


> <Canonical_QSARr>
CCCCC(CO)(CO)CC

> <InChI_Code_QSARr>
InChI=1S/C9H20O2/c1-3-5-6-9(4-2,7-10)8-11/h10-11H,3-8H2,1-2H3

> <InChI Key_QSARr>
DSKYSDCYIODJPC-UHFFFAOYSA-N

> <Salt_Solvent>


> <Salt_Solvent_ID>
0

> <MPID>
101359

> <Tr_1_Tst_0>
0

> <Ready_Biodeg>
0.0

$$$$
Row1325
  Mrv171c012251911052D          

 14 13  0  0  0  0            999 V2000
   -3.0046   -0.3752    0.0000 C   0  0  0  0  0  0  0  0  0  0  0  0
   -2.2901   -0.7877    0.0000 C   0  0  0  0  0  0  0  0  0  0  0  0
   -1.5756   -0.3752    0.0000 C   0  0  0  0  0  0  0  0  0  0  0  0
   -0.8612   -0.7877    0.0000 C   0  0  0  0  0  0  0  0  0  0  0  0
   -0.1467   -0.3752    0.0000 C   0  0  0  0  0  0  0  0  0  0  0  0
   -0.1467    0.4498    0.0000 C   0  0  0  0  0  0  0  0  0  0  0  0
    0.5678    0.8623    0.0000 C   0  0  0  0  0  0  0  0  0  0  0  0
    0.5678   -0.7877    0.0000 C   0  0  0  0  0  0  0  0  0  0  0  0
    1.2822   -0.3752    0.0000 O   0  0  0  0  0  0  0  0  0  0  0  0
    1.9967   -0.7877    0.0000 C   0  0  0  0  0  0  0  0  0  0  0  0
    1.9967   -1.6127    0.0000 O   0  0  0  0  0  0  0  0  0  0  0  0
    2.7112   -0.3752    0.0000 C   0  0  0  0  0  0  0  0  0  0  0  0
    3.4257   -0.7877    0.0000 C   0  0  0  0  0  0  0  0  0  0  0  0
    4.1401   -0.3752    0.0000 C   0  0  0  0  0  0  0  0  0  0  0  0
  1  2  1  0  0  0  0
  2  3  1  0  0  0  0
  3  4  1  0  0  0  0
  4  5  1  0  0  0  0
  5  6  1  0  0  0  0
  6  7  1  0  0  0  0
  5  8  1  0  0  0  0
  8  9  1  0  0  0  0
  9 10  1  0  0  0  0
 10 11  2  0  0  0  0
 10 12  1  0  0  0  0
 12 13  1  0  0  0  0
 13 14  1  0  0  0  0
M  END
> <ChemID>
201577

> <CAS>
25415-84-3

> <Original_SMILES>
CCCCC(COC(=O)CCC)CC

> <preferred_name>


> <dsstox_substance_id>


> <dsstox_compound_id>


> <qc_level>


> <Canonical_QSARr>
CCCCC(COC(=O)CCC)CC

> <InChI_Code_QSARr>
InChI=1S/C12H24O2/c1-4-7-9-11(6-3)10-14-12(13)8-5-2/h11H,4-10H2,1-3H3

> <InChI Key_QSARr>
LFEQNZNCKDNGRM-UHFFFAOYSA-N

> <Salt_Solvent>


> <Salt_Solvent_ID>
0

> <MPID>
101360

> <Tr_1_Tst_0>
1

> <Ready_Biodeg>
1.0

$$$$
Row1326
  Mrv171c012251911052D          

 29 28  0  0  0  0            999 V2000
   -2.7649    0.5480    0.0000 C   0  0  0  0  0  0  0  0  0  0  0  0
   -2.0505    0.1355    0.0000 C   0  0  0  0  0  0  0  0  0  0  0  0
   -1.3360    0.5480    0.0000 C   0  0  0  0  0  0  0  0  0  0  0  0
   -0.6215    0.1355    0.0000 C   0  0  0  0  0  0  0  0  0  0  0  0
    0.0929    0.5480    0.0000 C   0  0  0  0  0  0  0  0  0  0  0  0
    0.0929    1.3730    0.0000 C   0  0  0  0  0  0  0  0  0  0  0  0
    0.8074    1.7855    0.0000 C   0  0  0  0  0  0  0  0  0  0  0  0
    0.8074    0.1355    0.0000 C   0  0  0  0  0  0  0  0  0  0  0  0
    1.5219    0.5480    0.0000 O   0  0  0  0  0  0  0  0  0  0  0  0
    2.2364    0.1355    0.0000 C   0  0  0  0  0  0  0  0  0  0  0  0
    2.2364   -0.6895    0.0000 O   0  0  0  0  0  0  0  0  0  0  0  0
    2.9508    0.5480    0.0000 C   0  0  0  0  0  0  0  0  0  0  0  0
    3.6653    0.1355    0.0000 C   0  0  0  0  0  0  0  0  0  0  0  0
    4.3798    0.5480    0.0000 C   0  0  0  0  0  0  0  0  0  0  0  0
    5.0942    0.1355    0.0000 C   0  0  0  0  0  0  0  0  0  0  0  0
    5.8087    0.5480    0.0000 C   0  0  0  0  0  0  0  0  0  0  0  0
    6.5232    0.1355    0.0000 C   0  0  0  0  0  0  0  0  0  0  0  0
    7.2377    0.5480    0.0000 C   0  0  0  0  0  0  0  0  0  0  0  0
    7.9521    0.1355    0.0000 C   0  0  0  0  0  0  0  0  0  0  0  0
    7.9521   -0.6895    0.0000 O   0  0  0  0  0  0  0  0  0  0  0  0
    8.6666    0.5480    0.0000 O   0  0  0  0  0  0  0  0  0  0  0  0
    9.3811    0.1355    0.0000 C   0  0  0  0  0  0  0  0  0  0  0  0
   10.0955    0.5480    0.0000 C   0  0  0  0  0  0  0  0  0  0  0  0
   10.0955    1.3730    0.0000 C   0  0  0  0  0  0  0  0  0  0  0  0
   10.8100    1.7855    0.0000 C   0  0  0  0  0  0  0  0  0  0  0  0
   10.8100    0.1355    0.0000 C   0  0  0  0  0  0  0  0  0  0  0  0
   11.5245    0.5480    0.0000 C   0  0  0  0  0  0  0  0  0  0  0  0
   12.2390    0.1355    0.0000 C   0  0  0  0  0  0  0  0  0  0  0  0
   12.9534    0.5480    0.0000 C   0  0  0  0  0  0  0  0  0  0  0  0
  1  2  1  0  0  0  0
  2  3  1  0  0  0  0
  3  4  1  0  0  0  0
  4  5  1  0  0  0  0
  5  6  1  0  0  0  0
  6  7  1  0  0  0  0
  5  8  1  0  0  0  0
  8  9  1  0  0  0  0
  9 10  1  0  0  0  0
 10 11  2  0  0  0  0
 10 12  1  0  0  0  0
 12 13  1  0  0  0  0
 13 14  1  0  0  0  0
 14 15  1  0  0  0  0
 15 16  1  0  0  0  0
 16 17  1  0  0  0  0
 17 18  1  0  0  0  0
 18 19  1  0  0  0  0
 19 20  2  0  0  0  0
 19 21  1  0  0  0  0
 21 22  1  0  0  0  0
 22 23  1  0  0  0  0
 23 24  1  0  0  0  0
 24 25  1  0  0  0  0
 23 26  1  0  0  0  0
 26 27  1  0  0  0  0
 27 28  1  0  0  0  0
 28 29  1  0  0  0  0
M  END
> <ChemID>
201579

> <CAS>
103-24-2

> <Original_SMILES>
CCCCC(COC(=O)CCCCCCCC(=O)OCC(CCCC)CC)CC

> <preferred_name>
Bis(2-ethylhexyl) nonanedioate

> <dsstox_substance_id>
DTXSID3026697

> <dsstox_compound_id>
DTXCID306697

> <qc_level>


> <Canonical_QSARr>
CCCCC(COC(=O)CCCCCCCC(=O)OCC(CCCC)CC)CC

> <InChI_Code_QSARr>
InChI=1S/C25H48O4/c1-5-9-16-22(7-3)20-28-24(26)18-14-12-11-13-15-19-25(27)29-21-23(8-4)17-10-6-2/h22-23H,5-21H2,1-4H3

> <InChI Key_QSARr>
ZDWGXBPVPXVXMQ-UHFFFAOYSA-N

> <Salt_Solvent>


> <Salt_Solvent_ID>
0

> <MPID>
101361

> <Tr_1_Tst_0>
1

> <Ready_Biodeg>
1.0

$$$$
Row1327
  Mrv171c012251911052D          

 20 19  0  0  0  0            999 V2000
   -5.9250    2.5125    0.0000 C   0  0  0  0  0  0  0  0  0  0  0  0
   -5.5125    1.7980    0.0000 C   0  0  0  0  0  0  0  0  0  0  0  0
   -4.6875    1.7980    0.0000 C   0  0  0  0  0  0  0  0  0  0  0  0
   -4.2750    1.0836    0.0000 C   0  0  0  0  0  0  0  0  0  0  0  0
   -3.4500    1.0836    0.0000 C   0  0  0  0  0  0  0  0  0  0  0  0
   -3.0375    1.7980    0.0000 C   0  0  0  0  0  0  0  0  0  0  0  0
   -2.2125    1.7980    0.0000 C   0  0  0  0  0  0  0  0  0  0  0  0
   -3.0375    0.3691    0.0000 C   0  0  0  0  0  0  0  0  0  0  0  0
   -2.2125    0.3691    0.0000 O   0  0  0  0  0  0  0  0  0  0  0  0
   -1.8000   -0.3454    0.0000 P   0  0  0  0  0  0  0  0  0  0  0  0
   -2.5145   -0.7579    0.0000 O   0  0  0  0  0  0  0  0  0  0  0  0
   -1.0855    0.0671    0.0000 O   0  0  0  0  0  0  0  0  0  0  0  0
   -1.3875   -1.0598    0.0000 C   0  0  0  0  0  0  0  0  0  0  0  0
   -0.5625   -1.0598    0.0000 C   0  0  0  0  0  0  0  0  0  0  0  0
   -0.1500   -0.3454    0.0000 C   0  0  0  0  0  0  0  0  0  0  0  0
    0.6750   -0.3454    0.0000 C   0  0  0  0  0  0  0  0  0  0  0  0
   -0.1500   -1.7743    0.0000 C   0  0  0  0  0  0  0  0  0  0  0  0
    0.6750   -1.7743    0.0000 C   0  0  0  0  0  0  0  0  0  0  0  0
    1.0875   -2.4888    0.0000 C   0  0  0  0  0  0  0  0  0  0  0  0
    1.9125   -2.4888    0.0000 C   0  0  0  0  0  0  0  0  0  0  0  0
  1  2  1  0  0  0  0
  2  3  1  0  0  0  0
  3  4  1  0  0  0  0
  4  5  1  0  0  0  0
  5  6  1  0  0  0  0
  6  7  1  0  0  0  0
  5  8  1  0  0  0  0
  8  9  1  0  0  0  0
  9 10  1  0  0  0  0
 10 11  1  0  0  0  0
 10 12  2  0  0  0  0
 10 13  1  0  0  0  0
 13 14  1  0  0  0  0
 14 15  1  0  0  0  0
 15 16  1  0  0  0  0
 14 17  1  0  0  0  0
 17 18  1  0  0  0  0
 18 19  1  0  0  0  0
 19 20  1  0  0  0  0
M  END
> <ChemID>
201584

> <CAS>
14802-03-0

> <Original_SMILES>
CCCCC(CP(O)(=O)OCC(CCCC)CC)CC

> <preferred_name>


> <dsstox_substance_id>
DTXSID30864536

> <dsstox_compound_id>
DTXCID50813041

> <qc_level>


> <Canonical_QSARr>
CCCCC(CP(O)(=O)OCC(CCCC)CC)CC

> <InChI_Code_QSARr>
InChI=1S/C16H35O3P/c1-5-9-11-15(7-3)13-19-20(17,18)14-16(8-4)12-10-6-2/h15-16H,5-14H2,1-4H3,(H,17,18)

> <InChI Key_QSARr>
ZDFBXXSHBTVQMB-UHFFFAOYSA-N

> <Salt_Solvent>


> <Salt_Solvent_ID>
0

> <MPID>
101362

> <Tr_1_Tst_0>
1

> <Ready_Biodeg>
0.0

$$$$
Row1328
  Mrv171c012251911052D          

  6  5  0  0  0  0            999 V2000
   -2.1987   -0.2062    0.0000 C   0  0  0  0  0  0  0  0  0  0  0  0
   -1.4842    0.2063    0.0000 C   0  0  0  0  0  0  0  0  0  0  0  0
   -0.7697   -0.2063    0.0000 C   0  0  0  0  0  0  0  0  0  0  0  0
   -0.0552    0.2063    0.0000 C   0  0  0  0  0  0  0  0  0  0  0  0
    0.6592   -0.2063    0.0000 C   0  0  0  0  0  0  0  0  0  0  0  0
    1.3737    0.2062    0.0000 Br  0  0  0  0  0  0  0  0  0  0  0  0
  1  2  1  0  0  0  0
  2  3  1  0  0  0  0
  3  4  1  0  0  0  0
  4  5  1  0  0  0  0
  5  6  1  0  0  0  0
M  END
> <ChemID>
201586

> <CAS>
110-53-2

> <Original_SMILES>
CCCCCBr

> <preferred_name>
1-Bromopentane

> <dsstox_substance_id>
DTXSID3049203

> <dsstox_compound_id>
DTXCID8028474

> <qc_level>


> <Canonical_QSARr>
CCCCCBr

> <InChI_Code_QSARr>
InChI=1S/C5H11Br/c1-2-3-4-5-6/h2-5H2,1H3

> <InChI Key_QSARr>
YZWKKMVJZFACSU-UHFFFAOYSA-N

> <Salt_Solvent>


> <Salt_Solvent_ID>
0

> <MPID>
101363

> <Tr_1_Tst_0>
0

> <Ready_Biodeg>
0.0

$$$$
Row1329
  Mrv171c012251911052D          

 10  9  0  0  0  0            999 V2000
   -1.3206    0.0744    0.0000 C   0  0  0  0  0  0  0  0  0  0  0  0
   -0.6062   -0.3381    0.0000 C   0  0  0  0  0  0  0  0  0  0  0  0
    0.1083    0.0744    0.0000 C   0  0  0  0  0  0  0  0  0  0  0  0
    0.8228   -0.3381    0.0000 C   0  0  0  0  0  0  0  0  0  0  0  0
    1.5373    0.0744    0.0000 C   0  0  0  0  0  0  0  0  0  0  0  0
    2.2517   -0.3381    0.0000 C   0  0  0  0  0  0  0  0  0  0  0  0
    2.2517   -1.1631    0.0000 O   0  0  0  0  0  0  0  0  0  0  0  0
    2.9662    0.0744    0.0000 O   0  0  0  0  0  0  0  0  0  0  0  0
    3.6807   -0.3381    0.0000 C   0  0  0  0  0  0  0  0  0  0  0  0
    4.3951    0.0744    0.0000 C   0  0  0  0  0  0  0  0  0  0  0  0
  1  2  1  0  0  0  0
  2  3  1  0  0  0  0
  3  4  1  0  0  0  0
  4  5  1  0  0  0  0
  5  6  1  0  0  0  0
  6  7  2  0  0  0  0
  6  8  1  0  0  0  0
  8  9  1  0  0  0  0
  9 10  2  0  0  0  0
M  END
> <ChemID>
201588

> <CAS>
3050-69-9

> <Original_SMILES>
CCCCCC(=O)OC=C

> <preferred_name>
Vinyl hexanoate

> <dsstox_substance_id>
DTXSID60184572

> <dsstox_compound_id>
DTXCID00107063

> <qc_level>


> <Canonical_QSARr>
CCCCCC(=O)OC=C

> <InChI_Code_QSARr>
InChI=1S/C8H14O2/c1-3-5-6-7-8(9)10-4-2/h4H,2-3,5-7H2,1H3

> <InChI Key_QSARr>
LZWYWAIOTBEZFN-UHFFFAOYSA-N

> <Salt_Solvent>


> <Salt_Solvent_ID>
0

> <MPID>
101364

> <Tr_1_Tst_0>
1

> <Ready_Biodeg>
1.0

$$$$
Row1330
  Mrv171c012251911052D          

 69 74  0  0  0  0            999 V2000
  -25.3681    0.3231    0.0000 C   0  0  0  0  0  0  0  0  0  0  0  0
  -24.6536   -0.0894    0.0000 C   0  0  0  0  0  0  0  0  0  0  0  0
  -23.9392    0.3231    0.0000 C   0  0  0  0  0  0  0  0  0  0  0  0
  -23.2247   -0.0894    0.0000 C   0  0  0  0  0  0  0  0  0  0  0  0
  -22.5102    0.3231    0.0000 C   0  0  0  0  0  0  0  0  0  0  0  0
  -21.7958   -0.0894    0.0000 C   0  0  0  0  0  0  0  0  0  0  0  0
  -21.3833   -0.8039    0.0000 O   0  0  0  0  0  0  0  0  0  0  0  0
  -20.9708   -0.0894    0.0000 C   0  0  0  0  0  0  0  0  0  0  0  0
  -20.2563    0.3231    0.0000 C   0  0  0  0  0  0  0  0  0  0  0  0
  -19.5418   -0.0894    0.0000 C   0  0  0  0  0  0  0  0  0  0  0  0
  -19.1293   -0.8039    0.0000 O   0  0  0  0  0  0  0  0  0  0  0  0
  -18.7168   -0.0894    0.0000 C   0  0  0  0  0  0  0  0  0  0  0  0
  -18.0023    0.3231    0.0000 C   0  0  0  0  0  0  0  0  0  0  0  0
  -17.2879   -0.0894    0.0000 C   0  0  0  0  0  0  0  0  0  0  0  0
  -16.5734    0.3231    0.0000 C   0  0  0  0  0  0  0  0  0  0  0  0
  -15.8589   -0.0894    0.0000 C   0  0  0  0  0  0  0  0  0  0  0  0
  -15.1445    0.3231    0.0000 C   0  0  0  0  0  0  0  0  0  0  0  0
  -14.4300   -0.0894    0.0000 C   0  0  0  0  0  0  0  0  0  0  0  0
  -13.7155    0.3231    0.0000 C   0  0  0  0  0  0  0  0  0  0  0  0
  -13.0010   -0.0894    0.0000 C   0  0  0  0  0  0  0  0  0  0  0  0
  -13.0010   -0.9144    0.0000 O   0  0  0  0  0  0  0  0  0  0  0  0
  -12.2866    0.3231    0.0000 O   0  0  0  0  0  0  0  0  0  0  0  0
  -11.5721   -0.0894    0.0000 C   0  0  0  0  0  0  0  0  0  0  0  0
  -10.8576    0.3231    0.0000 C   0  0  0  0  0  0  0  0  0  0  0  0
  -10.1432   -0.0894    0.0000 C   0  0  0  0  0  0  0  0  0  0  0  0
   -9.4287    0.3231    0.0000 O   0  0  0  0  0  0  0  0  0  0  0  0
   -8.7142   -0.0894    0.0000 C   0  0  0  0  0  0  0  0  0  0  0  0
   -8.7142   -0.9144    0.0000 O   0  0  0  0  0  0  0  0  0  0  0  0
   -7.9997    0.3231    0.0000 C   0  0  0  0  0  0  0  0  0  0  0  0
   -7.2853   -0.0894    0.0000 C   0  0  0  0  0  0  0  0  0  0  0  0
   -6.5708    0.3231    0.0000 C   0  0  0  0  0  0  0  0  0  0  0  0
   -5.8563   -0.0894    0.0000 C   0  0  0  0  0  0  0  0  0  0  0  0
   -5.1419    0.3231    0.0000 C   0  0  0  0  0  0  0  0  0  0  0  0
   -4.4274   -0.0894    0.0000 C   0  0  0  0  0  0  0  0  0  0  0  0
   -3.7129    0.3231    0.0000 C   0  0  0  0  0  0  0  0  0  0  0  0
   -2.9985   -0.0894    0.0000 C   0  0  0  0  0  0  0  0  0  0  0  0
   -2.5860   -0.8039    0.0000 O   0  0  0  0  0  0  0  0  0  0  0  0
   -2.1735   -0.0894    0.0000 C   0  0  0  0  0  0  0  0  0  0  0  0
   -1.4590    0.3231    0.0000 C   0  0  0  0  0  0  0  0  0  0  0  0
   -0.7445   -0.0894    0.0000 C   0  0  0  0  0  0  0  0  0  0  0  0
   -0.3320   -0.8039    0.0000 O   0  0  0  0  0  0  0  0  0  0  0  0
    0.0805   -0.0894    0.0000 C   0  0  0  0  0  0  0  0  0  0  0  0
    0.7950    0.3231    0.0000 C   0  0  0  0  0  0  0  0  0  0  0  0
    1.5094   -0.0894    0.0000 C   0  0  0  0  0  0  0  0  0  0  0  0
    2.2239    0.3231    0.0000 C   0  0  0  0  0  0  0  0  0  0  0  0
    2.9384   -0.0894    0.0000 C   0  0  0  0  0  0  0  0  0  0  0  0
    3.6528    0.3231    0.0000 C   0  0  0  0  0  0  0  0  0  0  0  0
  -10.8576    1.1481    0.0000 O   0  0  0  0  0  0  0  0  0  0  0  0
  -10.1432    1.5606    0.0000 C   0  0  0  0  0  0  0  0  0  0  0  0
   -9.4287    1.1481    0.0000 O   0  0  0  0  0  0  0  0  0  0  0  0
  -10.1432    2.3856    0.0000 C   0  0  0  0  0  0  0  0  0  0  0  0
   -9.4287    2.7981    0.0000 C   0  0  0  0  0  0  0  0  0  0  0  0
   -9.4287    3.6231    0.0000 C   0  0  0  0  0  0  0  0  0  0  0  0
   -8.7142    4.0356    0.0000 C   0  0  0  0  0  0  0  0  0  0  0  0
   -8.7142    4.8606    0.0000 C   0  0  0  0  0  0  0  0  0  0  0  0
   -7.9997    5.2731    0.0000 C   0  0  0  0  0  0  0  0  0  0  0  0
   -7.9997    6.0981    0.0000 C   0  0  0  0  0  0  0  0  0  0  0  0
   -7.2853    6.5106    0.0000 C   0  0  0  0  0  0  0  0  0  0  0  0
   -6.4603    6.5106    0.0000 O   0  0  0  0  0  0  0  0  0  0  0  0
   -6.8728    7.2250    0.0000 C   0  0  0  0  0  0  0  0  0  0  0  0
   -6.8728    8.0500    0.0000 C   0  0  0  0  0  0  0  0  0  0  0  0
   -7.5872    8.4625    0.0000 C   0  0  0  0  0  0  0  0  0  0  0  0
   -7.9997    9.1770    0.0000 O   0  0  0  0  0  0  0  0  0  0  0  0
   -8.4122    8.4625    0.0000 C   0  0  0  0  0  0  0  0  0  0  0  0
   -9.1267    8.0500    0.0000 C   0  0  0  0  0  0  0  0  0  0  0  0
   -9.1267    7.2250    0.0000 C   0  0  0  0  0  0  0  0  0  0  0  0
   -9.8412    6.8125    0.0000 C   0  0  0  0  0  0  0  0  0  0  0  0
   -9.8412    5.9875    0.0000 C   0  0  0  0  0  0  0  0  0  0  0  0
  -10.5557    5.5750    0.0000 C   0  0  0  0  0  0  0  0  0  0  0  0
  1  2  1  0  0  0  0
  2  3  1  0  0  0  0
  3  4  1  0  0  0  0
  4  5  1  0  0  0  0
  5  6  1  0  0  0  0
  7  6  1  0  0  0  0
  8  7  1  0  0  0  0
  6  8  1  0  0  0  0
  8  9  1  0  0  0  0
  9 10  1  0  0  0  0
 11 10  1  0  0  0  0
 12 11  1  0  0  0  0
 10 12  1  0  0  0  0
 12 13  1  0  0  0  0
 13 14  1  0  0  0  0
 14 15  1  0  0  0  0
 15 16  1  0  0  0  0
 16 17  1  0  0  0  0
 17 18  1  0  0  0  0
 18 19  1  0  0  0  0
 19 20  1  0  0  0  0
 20 21  2  0  0  0  0
 20 22  1  0  0  0  0
 22 23  1  0  0  0  0
 23 24  1  0  0  0  0
 24 25  1  0  0  0  0
 25 26  1  0  0  0  0
 26 27  1  0  0  0  0
 27 28  2  0  0  0  0
 27 29  1  0  0  0  0
 29 30  1  0  0  0  0
 30 31  1  0  0  0  0
 31 32  1  0  0  0  0
 32 33  1  0  0  0  0
 33 34  1  0  0  0  0
 34 35  1  0  0  0  0
 35 36  1  0  0  0  0
 37 36  1  0  0  0  0
 38 37  1  0  0  0  0
 36 38  1  0  0  0  0
 38 39  1  0  0  0  0
 39 40  1  0  0  0  0
 41 40  1  0  0  0  0
 42 41  1  0  0  0  0
 40 42  1  0  0  0  0
 42 43  1  0  0  0  0
 43 44  1  0  0  0  0
 44 45  1  0  0  0  0
 45 46  1  0  0  0  0
 46 47  1  0  0  0  0
 24 48  1  0  0  0  0
 48 49  1  0  0  0  0
 49 50  2  0  0  0  0
 49 51  1  0  0  0  0
 51 52  1  0  0  0  0
 52 53  1  0  0  0  0
 53 54  1  0  0  0  0
 54 55  1  0  0  0  0
 55 56  1  0  0  0  0
 56 57  1  0  0  0  0
 57 58  1  0  0  0  0
 59 58  1  0  0  0  0
 60 59  1  0  0  0  0
 58 60  1  0  0  0  0
 60 61  1  0  0  0  0
 61 62  1  0  0  0  0
 63 62  1  0  0  0  0
 64 63  1  0  0  0  0
 62 64  1  0  0  0  0
 64 65  1  0  0  0  0
 65 66  1  0  0  0  0
 66 67  1  0  0  0  0
 67 68  1  0  0  0  0
 68 69  1  0  0  0  0
M  END
> <ChemID>
201590

> <CAS>
8013-07-8

> <Original_SMILES>
CCCCCC1OC1CC1OC1CCCCCCCC(=O)OC(COC(=O)CCCCCCCC1OC1CC1OC1CCCCC)COC(=O)CCCCCCCC1OC1CC1OC1CCCCC

> <preferred_name>


> <dsstox_substance_id>
DTXSID1027687

> <dsstox_compound_id>


> <qc_level>


> <Canonical_QSARr>
CCCCCC1OC1CC1OC1CCCCCCCC(=O)OC(COC(=O)CCCCCCCC1OC1CC1OC1CCCCC)COC(=O)CCCCCCCC1OC1CC1OC1CCCCC

> <InChI_Code_QSARr>
InChI=1S/C57H98O12/c1-4-7-19-28-43-49(64-43)37-52-46(67-52)31-22-13-10-16-25-34-55(58)61-40-42(63-57(60)36-27-18-12-15-24-33-48-54(69-48)39-51-45(66-51)30-21-9-6-3)41-62-56(59)35-26-17-11-14-23-32-47-53(68-47)38-50-44(65-50)29-20-8-5-2/h42-54H,4-41H2,1-3H3

> <InChI Key_QSARr>
JJGBFZZXKPWGCW-UHFFFAOYSA-N

> <Salt_Solvent>


> <Salt_Solvent_ID>
0

> <MPID>
101365

> <Tr_1_Tst_0>
0

> <Ready_Biodeg>
1.0

$$$$
Row1331
  Mrv171c012251911052D          

 22 23  0  0  0  0            999 V2000
   -7.2512   -1.0925    0.0000 C   0  0  0  0  0  0  0  0  0  0  0  0
   -6.5367   -1.5050    0.0000 C   0  0  0  0  0  0  0  0  0  0  0  0
   -5.8222   -1.0925    0.0000 C   0  0  0  0  0  0  0  0  0  0  0  0
   -5.1078   -1.5050    0.0000 C   0  0  0  0  0  0  0  0  0  0  0  0
   -4.3933   -1.0925    0.0000 C   0  0  0  0  0  0  0  0  0  0  0  0
   -3.6788   -1.5050    0.0000 C   0  0  0  0  0  0  0  0  0  0  0  0
   -2.9643   -1.0925    0.0000 C   0  0  0  0  0  0  0  0  0  0  0  0
   -2.9643   -0.2675    0.0000 C   0  0  0  0  0  0  0  0  0  0  0  0
   -2.2499   -1.5050    0.0000 N   0  0  0  0  0  0  0  0  0  0  0  0
   -1.5354   -1.0925    0.0000 C   0  0  0  0  0  0  0  0  0  0  0  0
   -0.8209   -1.5050    0.0000 C   0  0  0  0  0  0  0  0  0  0  0  0
   -0.1065   -1.0925    0.0000 C   0  0  0  0  0  0  0  0  0  0  0  0
   -0.1065   -0.2675    0.0000 C   0  0  0  0  0  0  0  0  0  0  0  0
    0.6080    0.1450    0.0000 N   0  0  0  0  0  0  0  0  0  0  0  0
    1.3225   -0.2675    0.0000 C   0  0  0  0  0  0  0  0  0  0  0  0
    1.3225   -1.0925    0.0000 C   0  0  0  0  0  0  0  0  0  0  0  0
    2.0370   -1.5050    0.0000 C   0  0  0  0  0  0  0  0  0  0  0  0
    2.7514   -1.0925    0.0000 C   0  0  0  0  0  0  0  0  0  0  0  0
    2.7514   -0.2675    0.0000 C   0  0  0  0  0  0  0  0  0  0  0  0
    2.0370    0.1450    0.0000 C   0  0  0  0  0  0  0  0  0  0  0  0
   -0.8209    0.1450    0.0000 C   0  0  0  0  0  0  0  0  0  0  0  0
   -1.5354   -0.2675    0.0000 C   0  0  0  0  0  0  0  0  0  0  0  0
  1  2  1  0  0  0  0
  2  3  1  0  0  0  0
  3  4  1  0  0  0  0
  4  5  1  0  0  0  0
  5  6  1  0  0  0  0
  6  7  1  0  0  0  0
  7  8  1  0  0  0  0
  7  9  1  0  0  0  0
  9 10  1  0  0  0  0
 11 10  2  0  0  0  0
 12 11  1  0  0  0  0
 13 12  2  0  0  0  0
 13 14  1  0  0  0  0
 14 15  1  0  0  0  0
 16 15  2  0  0  0  0
 17 16  1  0  0  0  0
 18 17  2  0  0  0  0
 19 18  1  0  0  0  0
 20 19  2  0  0  0  0
 15 20  1  0  0  0  0
 21 13  1  0  0  0  0
 22 21  2  0  0  0  0
 10 22  1  0  0  0  0
M  END
> <ChemID>
201593

> <CAS>
15233-47-3

> <Original_SMILES>
CCCCCCC(C)Nc1ccc(cc1)Nc1ccccc1

> <preferred_name>
N-(1-Methylheptyl)-N'-phenyl-1,4-benzenediamine

> <dsstox_substance_id>
DTXSID0027771

> <dsstox_compound_id>
DTXCID607771

> <qc_level>


> <Canonical_QSARr>
CCCCCCC(C)NC1C=CC(=CC=1)NC1C=CC=CC=1

> <InChI_Code_QSARr>
InChI=1S/C20H28N2/c1-3-4-5-7-10-17(2)21-19-13-15-20(16-14-19)22-18-11-8-6-9-12-18/h6,8-9,11-17,21-22H,3-5,7,10H2,1-2H3

> <InChI Key_QSARr>
JQTYAZKTBXWQOM-UHFFFAOYSA-N

> <Salt_Solvent>


> <Salt_Solvent_ID>
0

> <MPID>
101366

> <Tr_1_Tst_0>
1

> <Ready_Biodeg>
0.0

$$$$
Row1332
  Mrv171c012251911052D          

  9  8  0  0  0  0            999 V2000
   -2.5158   -0.0000    0.0000 C   0  0  0  0  0  0  0  0  0  0  0  0
   -1.8013    0.4125    0.0000 C   0  0  0  0  0  0  0  0  0  0  0  0
   -1.0869   -0.0000    0.0000 C   0  0  0  0  0  0  0  0  0  0  0  0
   -0.3724    0.4125    0.0000 C   0  0  0  0  0  0  0  0  0  0  0  0
    0.3421   -0.0000    0.0000 C   0  0  0  0  0  0  0  0  0  0  0  0
    1.0566    0.4125    0.0000 C   0  0  0  0  0  0  0  0  0  0  0  0
    1.7710   -0.0000    0.0000 C   0  0  0  0  0  0  0  0  0  0  0  0
    2.4855    0.4125    0.0000 C   0  0  0  0  0  0  0  0  0  0  0  0
    1.7710   -0.8250    0.0000 O   0  0  0  0  0  0  0  0  0  0  0  0
  1  2  1  0  0  0  0
  2  3  1  0  0  0  0
  3  4  1  0  0  0  0
  4  5  1  0  0  0  0
  5  6  1  0  0  0  0
  6  7  1  0  0  0  0
  7  8  1  0  0  0  0
  7  9  1  0  0  0  0
M  END
> <ChemID>
201594

> <CAS>
123-96-6

> <Original_SMILES>
CCCCCCC(C)O

> <preferred_name>
2-Octanol

> <dsstox_substance_id>
DTXSID0027014

> <dsstox_compound_id>
DTXCID607014

> <qc_level>


> <Canonical_QSARr>
CCCCCCC(C)O

> <InChI_Code_QSARr>
InChI=1S/C8H18O/c1-3-4-5-6-7-8(2)9/h8-9H,3-7H2,1-2H3

> <InChI Key_QSARr>
SJWFXCIHNDVPSH-UHFFFAOYSA-N

> <Salt_Solvent>


> <Salt_Solvent_ID>
0

> <MPID>
101367

> <Tr_1_Tst_0>
0

> <Ready_Biodeg>
1.0

$$$$
Row1333
  Mrv171c012251911052D          

 25 24  0  0  0  0            999 V2000
   -1.6717    3.9849    0.0000 C   0  0  0  0  0  0  0  0  0  0  0  0
   -0.9572    3.5724    0.0000 C   0  0  0  0  0  0  0  0  0  0  0  0
   -0.2427    3.9849    0.0000 C   0  0  0  0  0  0  0  0  0  0  0  0
    0.4717    3.5724    0.0000 C   0  0  0  0  0  0  0  0  0  0  0  0
    1.1862    3.9849    0.0000 C   0  0  0  0  0  0  0  0  0  0  0  0
    1.9007    3.5724    0.0000 C   0  0  0  0  0  0  0  0  0  0  0  0
    2.6151    3.9849    0.0000 C   0  0  0  0  0  0  0  0  0  0  0  0
    3.3296    3.5724    0.0000 C   0  0  0  0  0  0  0  0  0  0  0  0
    4.0441    3.9849    0.0000 C   0  0  0  0  0  0  0  0  0  0  0  0
    4.7586    3.5724    0.0000 C   0  0  0  0  0  0  0  0  0  0  0  0
    5.4730    3.9849    0.0000 C   0  0  0  0  0  0  0  0  0  0  0  0
    6.1875    3.5724    0.0000 C   0  0  0  0  0  0  0  0  0  0  0  0
    6.9020    3.9849    0.0000 C   0  0  0  0  0  0  0  0  0  0  0  0
    7.6164    3.5724    0.0000 C   0  0  0  0  0  0  0  0  0  0  0  0
    8.3309    3.9849    0.0000 C   0  0  0  0  0  0  0  0  0  0  0  0
    9.0454    3.5724    0.0000 C   0  0  0  0  0  0  0  0  0  0  0  0
    9.7599    3.9849    0.0000 C   0  0  0  0  0  0  0  0  0  0  0  0
   10.4743    3.5724    0.0000 C   0  0  0  0  0  0  0  0  0  0  0  0
   10.4743    2.7474    0.0000 O   0  0  0  0  0  0  0  0  0  0  0  0
   11.1888    3.9849    0.0000 O   0  0  0  0  0  0  0  0  0  0  0  0
   11.9033    3.5724    0.0000 C   0  0  0  0  0  0  0  0  0  0  0  0
   12.6177    3.9849    0.0000 C   0  0  0  0  0  0  0  0  0  0  0  0
   12.6177    4.8099    0.0000 O   0  0  0  0  0  0  0  0  0  0  0  0
   13.3322    3.5724    0.0000 C   0  0  0  0  0  0  0  0  0  0  0  0
   14.0467    3.9849    0.0000 O   0  0  0  0  0  0  0  0  0  0  0  0
  1  2  1  0  0  0  0
  2  3  1  0  0  0  0
  3  4  1  0  0  0  0
  4  5  1  0  0  0  0
  5  6  1  0  0  0  0
  6  7  1  0  0  0  0
  7  8  1  0  0  0  0
  9  8  1  4  0  0  0
  9 10  2  0  0  0  0
 10 11  1  0  0  0  0
 11 12  1  0  0  0  0
 12 13  1  0  0  0  0
 13 14  1  0  0  0  0
 14 15  1  0  0  0  0
 15 16  1  0  0  0  0
 16 17  1  0  0  0  0
 17 18  1  0  0  0  0
 18 19  2  0  0  0  0
 18 20  1  0  0  0  0
 20 21  1  0  0  0  0
 21 22  1  0  0  0  0
 22 23  1  0  0  0  0
 22 24  1  0  0  0  0
 24 25  1  0  0  0  0
M  END
> <ChemID>
201601

> <CAS>
111-03-5

> <Original_SMILES>
CCCCCCCC/C=C/CCCCCCCC(=O)OCC(O)CO

> <preferred_name>
Glyceryl cis-9-octadecenoate

> <dsstox_substance_id>
DTXSID3042003

> <dsstox_compound_id>
DTXCID1022003

> <qc_level>


> <Canonical_QSARr>
CCCCCCCCC=CCCCCCCCC(=O)OCC(O)CO

> <InChI_Code_QSARr>
InChI=1S/C21H40O4/c1-2-3-4-5-6-7-8-9-10-11-12-13-14-15-16-17-21(24)25-19-20(23)18-22/h9-10,20,22-23H,2-8,11-19H2,1H3

> <InChI Key_QSARr>
RZRNAYUHWVFMIP-UHFFFAOYSA-N

> <Salt_Solvent>


> <Salt_Solvent_ID>
0

> <MPID>
101368

> <Tr_1_Tst_0>
1

> <Ready_Biodeg>
1.0

$$$$
Row1334
  Mrv171c012251911052D          

 46 45  0  0  0  0            999 V2000
    5.7533    8.2717    0.0000 C   0  0  0  0  0  0  0  0  0  0  0  0
    6.4678    7.8592    0.0000 C   0  0  0  0  0  0  0  0  0  0  0  0
    7.1823    8.2717    0.0000 C   0  0  0  0  0  0  0  0  0  0  0  0
    7.8967    7.8592    0.0000 C   0  0  0  0  0  0  0  0  0  0  0  0
    8.6112    8.2717    0.0000 C   0  0  0  0  0  0  0  0  0  0  0  0
    9.3257    7.8592    0.0000 C   0  0  0  0  0  0  0  0  0  0  0  0
   10.0401    8.2717    0.0000 C   0  0  0  0  0  0  0  0  0  0  0  0
   10.7546    7.8592    0.0000 C   0  0  0  0  0  0  0  0  0  0  0  0
   11.4691    8.2717    0.0000 C   0  0  0  0  0  0  0  0  0  0  0  0
   12.1836    7.8592    0.0000 C   0  0  0  0  0  0  0  0  0  0  0  0
   12.8980    8.2717    0.0000 C   0  0  0  0  0  0  0  0  0  0  0  0
   13.6125    7.8592    0.0000 C   0  0  0  0  0  0  0  0  0  0  0  0
   14.3270    8.2717    0.0000 C   0  0  0  0  0  0  0  0  0  0  0  0
   15.0414    7.8592    0.0000 C   0  0  0  0  0  0  0  0  0  0  0  0
   15.7559    8.2717    0.0000 C   0  0  0  0  0  0  0  0  0  0  0  0
   16.4704    7.8592    0.0000 C   0  0  0  0  0  0  0  0  0  0  0  0
   17.1849    8.2717    0.0000 C   0  0  0  0  0  0  0  0  0  0  0  0
   17.8993    7.8592    0.0000 C   0  0  0  0  0  0  0  0  0  0  0  0
   18.6138    8.2717    0.0000 O   0  0  0  0  0  0  0  0  0  0  0  0
   19.3283    7.8592    0.0000 C   0  0  0  0  0  0  0  0  0  0  0  0
   19.3283    7.0342    0.0000 O   0  0  0  0  0  0  0  0  0  0  0  0
   20.0427    8.2717    0.0000 C   0  0  0  0  0  0  0  0  0  0  0  0
   20.7572    7.8592    0.0000 C   0  0  0  0  0  0  0  0  0  0  0  0
   21.4717    8.2717    0.0000 C   0  0  0  0  0  0  0  0  0  0  0  0
   22.1862    7.8592    0.0000 C   0  0  0  0  0  0  0  0  0  0  0  0
   22.9006    8.2717    0.0000 C   0  0  0  0  0  0  0  0  0  0  0  0
   22.9006    9.0967    0.0000 O   0  0  0  0  0  0  0  0  0  0  0  0
   23.6151    7.8592    0.0000 O   0  0  0  0  0  0  0  0  0  0  0  0
   24.3296    8.2717    0.0000 C   0  0  0  0  0  0  0  0  0  0  0  0
   25.0440    7.8592    0.0000 C   0  0  0  0  0  0  0  0  0  0  0  0
   25.7585    8.2717    0.0000 C   0  0  0  0  0  0  0  0  0  0  0  0
   26.4730    7.8592    0.0000 C   0  0  0  0  0  0  0  0  0  0  0  0
   27.1874    8.2717    0.0000 C   0  0  0  0  0  0  0  0  0  0  0  0
   27.9019    7.8592    0.0000 C   0  0  0  0  0  0  0  0  0  0  0  0
   28.6164    8.2717    0.0000 C   0  0  0  0  0  0  0  0  0  0  0  0
   29.3309    7.8592    0.0000 C   0  0  0  0  0  0  0  0  0  0  0  0
   30.0453    8.2717    0.0000 C   0  0  0  0  0  0  0  0  0  0  0  0
   30.7598    7.8592    0.0000 C   0  0  0  0  0  0  0  0  0  0  0  0
   31.4743    8.2717    0.0000 C   0  0  0  0  0  0  0  0  0  0  0  0
   31.4743    9.0967    0.0000 C   0  0  0  0  0  0  0  0  0  0  0  0
   32.1887    9.5092    0.0000 C   0  0  0  0  0  0  0  0  0  0  0  0
   32.1887   10.3342    0.0000 C   0  0  0  0  0  0  0  0  0  0  0  0
   32.9032   10.7467    0.0000 C   0  0  0  0  0  0  0  0  0  0  0  0
   32.9032   11.5717    0.0000 C   0  0  0  0  0  0  0  0  0  0  0  0
   33.6177   11.9842    0.0000 C   0  0  0  0  0  0  0  0  0  0  0  0
   33.6177   12.8092    0.0000 C   0  0  0  0  0  0  0  0  0  0  0  0
  1  2  1  0  0  0  0
  2  3  1  0  0  0  0
  3  4  1  0  0  0  0
  4  5  1  0  0  0  0
  5  6  1  0  0  0  0
  6  7  1  0  0  0  0
  7  8  1  0  0  0  0
  9  8  1  4  0  0  0
  9 10  2  0  0  0  0
 10 11  1  0  0  0  0
 11 12  1  0  0  0  0
 12 13  1  0  0  0  0
 13 14  1  0  0  0  0
 14 15  1  0  0  0  0
 15 16  1  0  0  0  0
 16 17  1  0  0  0  0
 17 18  1  0  0  0  0
 18 19  1  0  0  0  0
 19 20  1  0  0  0  0
 20 21  2  0  0  0  0
 20 22  1  0  0  0  0
 22 23  1  0  0  0  0
 23 24  1  0  0  0  0
 24 25  1  0  0  0  0
 25 26  1  0  0  0  0
 26 27  2  0  0  0  0
 26 28  1  0  0  0  0
 28 29  1  0  0  0  0
 29 30  1  0  0  0  0
 30 31  1  0  0  0  0
 31 32  1  0  0  0  0
 32 33  1  0  0  0  0
 33 34  1  0  0  0  0
 34 35  1  0  0  0  0
 35 36  1  0  0  0  0
 37 36  1  4  0  0  0
 37 38  2  0  0  0  0
 38 39  1  0  0  0  0
 39 40  1  0  0  0  0
 40 41  1  0  0  0  0
 41 42  1  0  0  0  0
 42 43  1  0  0  0  0
 43 44  1  0  0  0  0
 44 45  1  0  0  0  0
 45 46  1  0  0  0  0
M  END
> <ChemID>
201605

> <CAS>
40677-77-8

> <Original_SMILES>
CCCCCCCC/C=C/CCCCCCCCOC(=O)CCCCC(=O)OCCCCCCCC/C=C/CCCCCCCC

> <preferred_name>


> <dsstox_substance_id>


> <dsstox_compound_id>


> <qc_level>


> <Canonical_QSARr>
CCCCCCCCC=CCCCCCCCCOC(=O)CCCCC(=O)OCCCCCCCCC=CCCCCCCCC

> <InChI_Code_QSARr>
InChI=1S/C42H78O4/c1-3-5-7-9-11-13-15-17-19-21-23-25-27-29-31-35-39-45-41(43)37-33-34-38-42(44)46-40-36-32-30-28-26-24-22-20-18-16-14-12-10-8-6-4-2/h17-20H,3-16,21-40H2,1-2H3

> <InChI Key_QSARr>
QZULIRBSQUIUTA-UHFFFAOYSA-N

> <Salt_Solvent>


> <Salt_Solvent_ID>
0

> <MPID>
101369

> <Tr_1_Tst_0>
1

> <Ready_Biodeg>
1.0

$$$$
Row1335
  Mrv171c012251911052D          

 24 23  0  0  0  0            999 V2000
   -1.7718    1.0183    0.0000 O   0  0  0  0  0  0  0  0  0  0  0  0
   -1.0573    0.6058    0.0000 C   0  0  0  0  0  0  0  0  0  0  0  0
   -0.3428    1.0183    0.0000 C   0  0  0  0  0  0  0  0  0  0  0  0
    0.3717    0.6058    0.0000 N   0  3  0  0  0  0  0  0  0  0  0  0
   -0.0408   -0.1087    0.0000 C   0  0  0  0  0  0  0  0  0  0  0  0
    0.7842    1.3203    0.0000 C   0  0  0  0  0  0  0  0  0  0  0  0
    1.0861    0.1933    0.0000 C   0  0  0  0  0  0  0  0  0  0  0  0
    1.8006    0.6058    0.0000 C   0  0  0  0  0  0  0  0  0  0  0  0
    2.5151    0.1933    0.0000 C   0  0  0  0  0  0  0  0  0  0  0  0
    3.2295    0.6058    0.0000 N   0  0  0  0  0  0  0  0  0  0  0  0
    3.9440    0.1933    0.0000 C   0  0  0  0  0  0  0  0  0  0  0  0
    3.9440   -0.6317    0.0000 O   0  0  0  0  0  0  0  0  0  0  0  0
    4.6585    0.6058    0.0000 C   0  0  0  0  0  0  0  0  0  0  0  0
    5.3730    0.1933    0.0000 C   0  0  0  0  0  0  0  0  0  0  0  0
    6.0874    0.6058    0.0000 C   0  0  0  0  0  0  0  0  0  0  0  0
    6.8019    0.1933    0.0000 C   0  0  0  0  0  0  0  0  0  0  0  0
    7.5164    0.6058    0.0000 C   0  0  0  0  0  0  0  0  0  0  0  0
    8.2308    0.1933    0.0000 C   0  0  0  0  0  0  0  0  0  0  0  0
    8.9453    0.6058    0.0000 C   0  0  0  0  0  0  0  0  0  0  0  0
    9.6598    0.1933    0.0000 C   0  0  0  0  0  0  0  0  0  0  0  0
   10.3742    0.6058    0.0000 C   0  0  0  0  0  0  0  0  0  0  0  0
   11.0887    0.1933    0.0000 C   0  0  0  0  0  0  0  0  0  0  0  0
   11.8032    0.6058    0.0000 C   0  0  0  0  0  0  0  0  0  0  0  0
   -1.0573   -0.2192    0.0000 O   0  0  0  0  0  0  0  0  0  0  0  0
  1  2  1  0  0  0  0
  2  3  1  0  0  0  0
  3  4  1  0  0  0  0
  4  5  1  0  0  0  0
  4  6  1  0  0  0  0
  4  7  1  0  0  0  0
  7  8  1  0  0  0  0
  8  9  1  0  0  0  0
  9 10  1  0  0  0  0
 10 11  1  0  0  0  0
 11 12  2  0  0  0  0
 11 13  1  0  0  0  0
 13 14  1  0  0  0  0
 14 15  1  0  0  0  0
 15 16  1  0  0  0  0
 16 17  1  0  0  0  0
 17 18  1  0  0  0  0
 18 19  1  0  0  0  0
 19 20  1  0  0  0  0
 20 21  1  0  0  0  0
 21 22  1  0  0  0  0
 22 23  1  0  0  0  0
  2 24  2  0  0  0  0
M  CHG  1   4   1
M  END
> <ChemID>
201607

> <CAS>
4292-10-8

> <Original_SMILES>
CCCCCCCCCCCC(=O)NCCC[N+](C)(C)CC(O)=O

> <preferred_name>
1-Propanaminium, N-(carboxymethyl)-N,N-dimethyl-3-[(1-oxododecyl)amino]-, inner salt

> <dsstox_substance_id>
DTXSID4041282

> <dsstox_compound_id>
DTXCID2021282

> <qc_level>


> <Canonical_QSARr>
CCCCCCCCCCCC(=O)NCCC[N+](C)(C)CC(O)=O

> <InChI_Code_QSARr>
InChI=1S/C19H38N2O3/c1-4-5-6-7-8-9-10-11-12-14-18(22)20-15-13-16-21(2,3)17-19(23)24/h4-17H2,1-3H3,(H-,20,22,23,24)/p+1

> <InChI Key_QSARr>
MRUAUOIMASANKQ-UHFFFAOYSA-O

> <Salt_Solvent>


> <Salt_Solvent_ID>
0

> <MPID>
101370

> <Tr_1_Tst_0>
1

> <Ready_Biodeg>
1.0

$$$$
Row1336
  Mrv171c012251911052D          

 15 14  0  0  0  0            999 V2000
   -3.4009   -0.2274    0.0000 C   0  0  0  0  0  0  0  0  0  0  0  0
   -2.6864    0.1851    0.0000 C   0  0  0  0  0  0  0  0  0  0  0  0
   -1.9719   -0.2274    0.0000 C   0  0  0  0  0  0  0  0  0  0  0  0
   -1.2575    0.1851    0.0000 C   0  0  0  0  0  0  0  0  0  0  0  0
   -0.5430   -0.2274    0.0000 C   0  0  0  0  0  0  0  0  0  0  0  0
    0.1715    0.1851    0.0000 C   0  0  0  0  0  0  0  0  0  0  0  0
    0.8859   -0.2274    0.0000 C   0  0  0  0  0  0  0  0  0  0  0  0
    1.6004    0.1851    0.0000 C   0  0  0  0  0  0  0  0  0  0  0  0
    2.3149   -0.2274    0.0000 C   0  0  0  0  0  0  0  0  0  0  0  0
    3.0294    0.1851    0.0000 C   0  0  0  0  0  0  0  0  0  0  0  0
    3.7438   -0.2274    0.0000 C   0  0  0  0  0  0  0  0  0  0  0  0
    4.4583    0.1851    0.0000 C   0  0  0  0  0  0  0  0  0  0  0  0
    4.4583    1.0101    0.0000 O   0  0  0  0  0  0  0  0  0  0  0  0
    5.1728   -0.2274    0.0000 O   0  0  0  0  0  0  0  0  0  0  0  0
    5.8872    0.1851    0.0000 C   0  0  0  0  0  0  0  0  0  0  0  0
  1  2  1  0  0  0  0
  2  3  1  0  0  0  0
  3  4  1  0  0  0  0
  4  5  1  0  0  0  0
  5  6  1  0  0  0  0
  6  7  1  0  0  0  0
  7  8  1  0  0  0  0
  8  9  1  0  0  0  0
  9 10  1  0  0  0  0
 10 11  1  0  0  0  0
 11 12  1  0  0  0  0
 12 13  2  0  0  0  0
 12 14  1  0  0  0  0
 14 15  1  0  0  0  0
M  END
> <ChemID>
201608

> <CAS>
111-82-0

> <Original_SMILES>
CCCCCCCCCCCC(=O)OC

> <preferred_name>
Methyl dodecanoate

> <dsstox_substance_id>
DTXSID5026889

> <dsstox_compound_id>
DTXCID206889

> <qc_level>


> <Canonical_QSARr>
CCCCCCCCCCCC(=O)OC

> <InChI_Code_QSARr>
InChI=1S/C13H26O2/c1-3-4-5-6-7-8-9-10-11-12-13(14)15-2/h3-12H2,1-2H3

> <InChI Key_QSARr>
UQDUPQYQJKYHQI-UHFFFAOYSA-N

> <Salt_Solvent>


> <Salt_Solvent_ID>
0

> <MPID>
101371

> <Tr_1_Tst_0>
1

> <Ready_Biodeg>
1.0

$$$$
Row1337
  Mrv171c012251911052D          

 24 24  0  0  0  0            999 V2000
   -3.5145   -0.6114    0.0000 C   0  0  0  0  0  0  0  0  0  0  0  0
   -2.8000   -1.0239    0.0000 C   0  0  0  0  0  0  0  0  0  0  0  0
   -2.0856   -0.6114    0.0000 C   0  0  0  0  0  0  0  0  0  0  0  0
   -1.3711   -1.0239    0.0000 C   0  0  0  0  0  0  0  0  0  0  0  0
   -0.6566   -0.6114    0.0000 C   0  0  0  0  0  0  0  0  0  0  0  0
    0.0579   -1.0239    0.0000 C   0  0  0  0  0  0  0  0  0  0  0  0
    0.7723   -0.6114    0.0000 C   0  0  0  0  0  0  0  0  0  0  0  0
    1.4868   -1.0239    0.0000 C   0  0  0  0  0  0  0  0  0  0  0  0
    2.2013   -0.6114    0.0000 C   0  0  0  0  0  0  0  0  0  0  0  0
    2.9157   -1.0239    0.0000 C   0  0  0  0  0  0  0  0  0  0  0  0
    3.6302   -0.6114    0.0000 C   0  0  0  0  0  0  0  0  0  0  0  0
    4.3447   -1.0239    0.0000 C   0  0  0  0  0  0  0  0  0  0  0  0
    4.3447   -1.8489    0.0000 O   0  0  0  0  0  0  0  0  0  0  0  0
    5.0591   -0.6114    0.0000 O   0  0  0  0  0  0  0  0  0  0  0  0
    5.7736   -1.0239    0.0000 C   0  0  0  0  0  0  0  0  0  0  0  0
    6.4881   -0.6114    0.0000 C   0  0  0  0  0  0  0  0  0  0  0  0
    6.4881    0.2136    0.0000 O   0  0  0  0  0  0  0  0  0  0  0  0
    7.2026   -1.0239    0.0000 C   0  0  0  0  0  0  0  0  0  0  0  0
    7.2888   -1.8444    0.0000 O   0  0  0  0  0  0  0  0  0  0  0  0
    8.0958   -2.0159    0.0000 C   0  0  0  0  0  0  0  0  0  0  0  0
    8.5083   -1.3014    0.0000 C   0  0  0  0  0  0  0  0  0  0  0  0
    9.3287   -1.2152    0.0000 O   0  0  0  0  0  0  0  0  0  0  0  0
    7.9562   -0.6883    0.0000 C   0  0  0  0  0  0  0  0  0  0  0  0
    8.1278    0.1186    0.0000 O   0  0  0  0  0  0  0  0  0  0  0  0
  1  2  1  0  0  0  0
  2  3  1  0  0  0  0
  3  4  1  0  0  0  0
  4  5  1  0  0  0  0
  5  6  1  0  0  0  0
  6  7  1  0  0  0  0
  7  8  1  0  0  0  0
  8  9  1  0  0  0  0
  9 10  1  0  0  0  0
 10 11  1  0  0  0  0
 11 12  1  0  0  0  0
 12 13  2  0  0  0  0
 12 14  1  0  0  0  0
 14 15  1  0  0  0  0
 15 16  1  0  0  0  0
 16 17  1  0  0  0  0
 16 18  1  0  0  0  0
 19 18  1  0  0  0  0
 20 19  1  0  0  0  0
 21 20  1  0  0  0  0
 21 22  1  0  0  0  0
 23 21  1  0  0  0  0
 18 23  1  0  0  0  0
 23 24  1  0  0  0  0
M  END
> <ChemID>
201609

> <CAS>
16287-68-6

> <Original_SMILES>
CCCCCCCCCCCC(=O)OCC(O)C1OCC(O)C1O

> <preferred_name>


> <dsstox_substance_id>
DTXSID70324260

> <dsstox_compound_id>
DTXCID60209436

> <qc_level>


> <Canonical_QSARr>
CCCCCCCCCCCC(=O)OCC(O)C1OCC(O)C1O

> <InChI_Code_QSARr>
InChI=1S/C18H34O6/c1-2-3-4-5-6-7-8-9-10-11-16(21)23-13-15(20)18-17(22)14(19)12-24-18/h14-15,17-20,22H,2-13H2,1H3

> <InChI Key_QSARr>
LWZFANDGMFTDAV-UHFFFAOYSA-N

> <Salt_Solvent>


> <Salt_Solvent_ID>
0

> <MPID>
101372

> <Tr_1_Tst_0>
1

> <Ready_Biodeg>
1.0

$$$$
Row1338
  Mrv171c012251911052D          

 28 27  0  0  0  0            999 V2000
   -3.1566    0.5081    0.0000 C   0  0  0  0  0  0  0  0  0  0  0  0
   -2.4421    0.9206    0.0000 C   0  0  0  0  0  0  0  0  0  0  0  0
   -1.7277    0.5081    0.0000 C   0  0  0  0  0  0  0  0  0  0  0  0
   -1.0132    0.9206    0.0000 C   0  0  0  0  0  0  0  0  0  0  0  0
   -0.2987    0.5081    0.0000 C   0  0  0  0  0  0  0  0  0  0  0  0
    0.4157    0.9206    0.0000 C   0  0  0  0  0  0  0  0  0  0  0  0
    1.1302    0.5081    0.0000 C   0  0  0  0  0  0  0  0  0  0  0  0
    1.8447    0.9206    0.0000 C   0  0  0  0  0  0  0  0  0  0  0  0
    2.5592    0.5081    0.0000 C   0  0  0  0  0  0  0  0  0  0  0  0
    3.2736    0.9206    0.0000 C   0  0  0  0  0  0  0  0  0  0  0  0
    3.9881    0.5081    0.0000 C   0  0  0  0  0  0  0  0  0  0  0  0
    4.7026    0.9206    0.0000 C   0  0  0  0  0  0  0  0  0  0  0  0
    4.7026    1.7456    0.0000 O   0  0  0  0  0  0  0  0  0  0  0  0
    5.4170    0.5081    0.0000 O   0  0  0  0  0  0  0  0  0  0  0  0
    6.1315    0.9206    0.0000 O   0  0  0  0  0  0  0  0  0  0  0  0
    6.8460    0.5081    0.0000 C   0  0  0  0  0  0  0  0  0  0  0  0
    6.8460   -0.3169    0.0000 O   0  0  0  0  0  0  0  0  0  0  0  0
    7.5605    0.9206    0.0000 C   0  0  0  0  0  0  0  0  0  0  0  0
    8.2749    0.5081    0.0000 C   0  0  0  0  0  0  0  0  0  0  0  0
    8.9894    0.9206    0.0000 C   0  0  0  0  0  0  0  0  0  0  0  0
    9.7039    0.5081    0.0000 C   0  0  0  0  0  0  0  0  0  0  0  0
   10.4183    0.9206    0.0000 C   0  0  0  0  0  0  0  0  0  0  0  0
   11.1328    0.5081    0.0000 C   0  0  0  0  0  0  0  0  0  0  0  0
   11.8473    0.9206    0.0000 C   0  0  0  0  0  0  0  0  0  0  0  0
   12.5618    0.5081    0.0000 C   0  0  0  0  0  0  0  0  0  0  0  0
   13.2762    0.9206    0.0000 C   0  0  0  0  0  0  0  0  0  0  0  0
   13.9907    0.5081    0.0000 C   0  0  0  0  0  0  0  0  0  0  0  0
   14.7052    0.9206    0.0000 C   0  0  0  0  0  0  0  0  0  0  0  0
  1  2  1  0  0  0  0
  2  3  1  0  0  0  0
  3  4  1  0  0  0  0
  4  5  1  0  0  0  0
  5  6  1  0  0  0  0
  6  7  1  0  0  0  0
  7  8  1  0  0  0  0
  8  9  1  0  0  0  0
  9 10  1  0  0  0  0
 10 11  1  0  0  0  0
 11 12  1  0  0  0  0
 12 13  2  0  0  0  0
 12 14  1  0  0  0  0
 14 15  1  0  0  0  0
 15 16  1  0  0  0  0
 16 17  2  0  0  0  0
 16 18  1  0  0  0  0
 18 19  1  0  0  0  0
 19 20  1  0  0  0  0
 20 21  1  0  0  0  0
 21 22  1  0  0  0  0
 22 23  1  0  0  0  0
 23 24  1  0  0  0  0
 24 25  1  0  0  0  0
 25 26  1  0  0  0  0
 26 27  1  0  0  0  0
 27 28  1  0  0  0  0
M  END
> <ChemID>
201610

> <CAS>
105-74-8

> <Original_SMILES>
CCCCCCCCCCCC(=O)OOC(=O)CCCCCCCCCCC

> <preferred_name>
Peroxide, bis(1-oxododecyl)

> <dsstox_substance_id>
DTXSID1059319

> <dsstox_compound_id>
DTXCID8032916

> <qc_level>


> <Canonical_QSARr>
CCCCCCCCCCCC(=O)OOC(=O)CCCCCCCCCCC

> <InChI_Code_QSARr>
InChI=1S/C24H46O4/c1-3-5-7-9-11-13-15-17-19-21-23(25)27-28-24(26)22-20-18-16-14-12-10-8-6-4-2/h3-22H2,1-2H3

> <InChI Key_QSARr>
YIVJZNGAASQVEM-UHFFFAOYSA-N

> <Salt_Solvent>


> <Salt_Solvent_ID>
0

> <MPID>
101373

> <Tr_1_Tst_0>
0

> <Ready_Biodeg>
1.0

$$$$
Row1339
  Mrv171c012251911052D          

 25 25  0  0  0  0            999 V2000
  -10.7803   -0.2301    0.0000 C   0  0  0  0  0  0  0  0  0  0  0  0
  -10.0659    0.1824    0.0000 C   0  0  0  0  0  0  0  0  0  0  0  0
   -9.3514   -0.2301    0.0000 C   0  0  0  0  0  0  0  0  0  0  0  0
   -8.6369    0.1824    0.0000 C   0  0  0  0  0  0  0  0  0  0  0  0
   -7.9224   -0.2301    0.0000 C   0  0  0  0  0  0  0  0  0  0  0  0
   -7.2080    0.1824    0.0000 C   0  0  0  0  0  0  0  0  0  0  0  0
   -6.4935   -0.2301    0.0000 C   0  0  0  0  0  0  0  0  0  0  0  0
   -5.7790    0.1824    0.0000 C   0  0  0  0  0  0  0  0  0  0  0  0
   -5.0646   -0.2301    0.0000 C   0  0  0  0  0  0  0  0  0  0  0  0
   -4.3501    0.1824    0.0000 C   0  0  0  0  0  0  0  0  0  0  0  0
   -3.6356   -0.2301    0.0000 C   0  0  0  0  0  0  0  0  0  0  0  0
   -2.9211    0.1824    0.0000 C   0  0  0  0  0  0  0  0  0  0  0  0
   -2.9211    1.0074    0.0000 O   0  0  0  0  0  0  0  0  0  0  0  0
   -2.2067   -0.2301    0.0000 O   0  0  0  0  0  0  0  0  0  0  0  0
   -1.4922    0.1824    0.0000 C   0  0  0  0  0  0  0  0  0  0  0  0
   -0.7777   -0.2301    0.0000 C   0  0  0  0  0  0  0  0  0  0  0  0
   -0.7777   -1.0551    0.0000 Cl  0  0  0  0  0  0  0  0  0  0  0  0
   -0.0633    0.1824    0.0000 C   0  0  0  0  0  0  0  0  0  0  0  0
    0.6512   -0.2301    0.0000 Cl  0  0  0  0  0  0  0  0  0  0  0  0
   -0.0633    1.0074    0.0000 C   0  0  0  0  0  0  0  0  0  0  0  0
    0.6512    1.4199    0.0000 Cl  0  0  0  0  0  0  0  0  0  0  0  0
   -0.7777    1.4199    0.0000 C   0  0  0  0  0  0  0  0  0  0  0  0
   -0.7777    2.2449    0.0000 Cl  0  0  0  0  0  0  0  0  0  0  0  0
   -1.4922    1.0074    0.0000 C   0  0  0  0  0  0  0  0  0  0  0  0
   -2.2067    1.4199    0.0000 Cl  0  0  0  0  0  0  0  0  0  0  0  0
  1  2  1  0  0  0  0
  2  3  1  0  0  0  0
  3  4  1  0  0  0  0
  4  5  1  0  0  0  0
  5  6  1  0  0  0  0
  6  7  1  0  0  0  0
  7  8  1  0  0  0  0
  8  9  1  0  0  0  0
  9 10  1  0  0  0  0
 10 11  1  0  0  0  0
 11 12  1  0  0  0  0
 12 13  2  0  0  0  0
 12 14  1  0  0  0  0
 14 15  1  0  0  0  0
 16 15  2  0  0  0  0
 16 17  1  0  0  0  0
 18 16  1  0  0  0  0
 18 19  1  0  0  0  0
 20 18  2  0  0  0  0
 20 21  1  0  0  0  0
 22 20  1  0  0  0  0
 22 23  1  0  0  0  0
 24 22  2  0  0  0  0
 15 24  1  0  0  0  0
 24 25  1  0  0  0  0
M  END
> <ChemID>
201612

> <CAS>
3772-94-9

> <Original_SMILES>
CCCCCCCCCCCC(=O)Oc1c(Cl)c(Cl)c(Cl)c(Cl)c1Cl

> <preferred_name>
Pentachlorophenyl laurate

> <dsstox_substance_id>
DTXSID9058078

> <dsstox_compound_id>
DTXCID5031846

> <qc_level>


> <Canonical_QSARr>
CCCCCCCCCCCC(=O)OC1C(Cl)=C(Cl)C(Cl)=C(Cl)C=1Cl

> <InChI_Code_QSARr>
InChI=1S/C18H23Cl5O2/c1-2-3-4-5-6-7-8-9-10-11-12(24)25-18-16(22)14(20)13(19)15(21)17(18)23/h2-11H2,1H3

> <InChI Key_QSARr>
MKNJWAXSYGAMGJ-UHFFFAOYSA-N

> <Salt_Solvent>


> <Salt_Solvent_ID>
0

> <MPID>
101374

> <Tr_1_Tst_0>
1

> <Ready_Biodeg>
0.0

$$$$
Row1340
  Mrv171c012251911052D          

 30 29  0  0  0  0            999 V2000
  -15.6093   -0.1473    0.0000 C   0  0  0  0  0  0  0  0  0  0  0  0
  -14.8948   -0.5598    0.0000 C   0  0  0  0  0  0  0  0  0  0  0  0
  -14.1803   -0.1473    0.0000 C   0  0  0  0  0  0  0  0  0  0  0  0
  -13.4658   -0.5598    0.0000 C   0  0  0  0  0  0  0  0  0  0  0  0
  -12.7514   -0.1473    0.0000 C   0  0  0  0  0  0  0  0  0  0  0  0
  -12.0369   -0.5598    0.0000 C   0  0  0  0  0  0  0  0  0  0  0  0
  -11.3224   -0.1473    0.0000 C   0  0  0  0  0  0  0  0  0  0  0  0
  -10.6080   -0.5598    0.0000 C   0  0  0  0  0  0  0  0  0  0  0  0
   -9.8935   -0.1473    0.0000 C   0  0  0  0  0  0  0  0  0  0  0  0
   -9.1790   -0.5598    0.0000 C   0  0  0  0  0  0  0  0  0  0  0  0
   -8.4645   -0.1473    0.0000 C   0  0  0  0  0  0  0  0  0  0  0  0
   -7.7501   -0.5598    0.0000 C   0  0  0  0  0  0  0  0  0  0  0  0
   -7.0356   -0.1473    0.0000 C   0  0  0  0  0  0  0  0  0  0  0  0
   -6.3211   -0.5598    0.0000 C   0  0  0  0  0  0  0  0  0  0  0  0
   -5.6067   -0.1473    0.0000 O   0  0  0  0  0  0  0  0  0  0  0  0
   -4.8922   -0.5598    0.0000 C   0  0  0  0  0  0  0  0  0  0  0  0
   -4.8922   -1.3848    0.0000 O   0  0  0  0  0  0  0  0  0  0  0  0
   -4.1777   -0.1473    0.0000 C   0  0  0  0  0  0  0  0  0  0  0  0
   -3.4632   -0.5598    0.0000 C   0  0  0  0  0  0  0  0  0  0  0  0
   -2.7488   -0.1473    0.0000 C   0  0  0  0  0  0  0  0  0  0  0  0
   -2.0343   -0.5598    0.0000 C   0  0  0  0  0  0  0  0  0  0  0  0
   -1.3198   -0.1473    0.0000 C   0  0  0  0  0  0  0  0  0  0  0  0
   -0.6054   -0.5598    0.0000 C   0  0  0  0  0  0  0  0  0  0  0  0
    0.1091   -0.1473    0.0000 C   0  0  0  0  0  0  0  0  0  0  0  0
    0.8236   -0.5598    0.0000 C   0  0  0  0  0  0  0  0  0  0  0  0
    1.5381   -0.1473    0.0000 C   0  0  0  0  0  0  0  0  0  0  0  0
    2.2525   -0.5598    0.0000 C   0  0  0  0  0  0  0  0  0  0  0  0
    2.9670   -0.1473    0.0000 C   0  0  0  0  0  0  0  0  0  0  0  0
    3.6815   -0.5598    0.0000 C   0  0  0  0  0  0  0  0  0  0  0  0
    4.3959   -0.1473    0.0000 C   0  0  0  0  0  0  0  0  0  0  0  0
  1  2  1  0  0  0  0
  2  3  1  0  0  0  0
  3  4  1  0  0  0  0
  4  5  1  0  0  0  0
  5  6  1  0  0  0  0
  6  7  1  0  0  0  0
  7  8  1  0  0  0  0
  8  9  1  0  0  0  0
  9 10  1  0  0  0  0
 10 11  1  0  0  0  0
 11 12  1  0  0  0  0
 12 13  1  0  0  0  0
 13 14  1  0  0  0  0
 14 15  1  0  0  0  0
 15 16  1  0  0  0  0
 16 17  2  0  0  0  0
 16 18  1  0  0  0  0
 18 19  1  0  0  0  0
 19 20  1  0  0  0  0
 20 21  1  0  0  0  0
 21 22  1  0  0  0  0
 22 23  1  0  0  0  0
 23 24  1  0  0  0  0
 24 25  1  0  0  0  0
 25 26  1  0  0  0  0
 26 27  1  0  0  0  0
 27 28  1  0  0  0  0
 28 29  1  0  0  0  0
 29 30  1  0  0  0  0
M  END
> <ChemID>
201613

> <CAS>
3234-85-3

> <Original_SMILES>
CCCCCCCCCCCCCC(=O)OCCCCCCCCCCCCCC

> <preferred_name>
Myristyl myristate

> <dsstox_substance_id>
DTXSID5047403

> <dsstox_compound_id>
DTXCID3027403

> <qc_level>


> <Canonical_QSARr>
CCCCCCCCCCCCCC(=O)OCCCCCCCCCCCCCC

> <InChI_Code_QSARr>
InChI=1S/C28H56O2/c1-3-5-7-9-11-13-15-17-19-21-23-25-27-30-28(29)26-24-22-20-18-16-14-12-10-8-6-4-2/h3-27H2,1-2H3

> <InChI Key_QSARr>
DZKXJUASMGQEMA-UHFFFAOYSA-N

> <Salt_Solvent>


> <Salt_Solvent_ID>
0

> <MPID>
101375

> <Tr_1_Tst_0>
1

> <Ready_Biodeg>
1.0

$$$$
Row1341
  Mrv171c012251911052D          

 28 28  0  0  0  0            999 V2000
   -3.6331   -0.8055    0.0000 C   0  0  0  0  0  0  0  0  0  0  0  0
   -2.9187   -1.2180    0.0000 C   0  0  0  0  0  0  0  0  0  0  0  0
   -2.2042   -0.8055    0.0000 C   0  0  0  0  0  0  0  0  0  0  0  0
   -1.4897   -1.2180    0.0000 C   0  0  0  0  0  0  0  0  0  0  0  0
   -0.7753   -0.8055    0.0000 C   0  0  0  0  0  0  0  0  0  0  0  0
   -0.0608   -1.2180    0.0000 C   0  0  0  0  0  0  0  0  0  0  0  0
    0.6537   -0.8055    0.0000 C   0  0  0  0  0  0  0  0  0  0  0  0
    1.3682   -1.2180    0.0000 C   0  0  0  0  0  0  0  0  0  0  0  0
    2.0826   -0.8055    0.0000 C   0  0  0  0  0  0  0  0  0  0  0  0
    2.7971   -1.2180    0.0000 C   0  0  0  0  0  0  0  0  0  0  0  0
    3.5116   -0.8055    0.0000 C   0  0  0  0  0  0  0  0  0  0  0  0
    4.2260   -1.2180    0.0000 C   0  0  0  0  0  0  0  0  0  0  0  0
    4.9405   -0.8055    0.0000 C   0  0  0  0  0  0  0  0  0  0  0  0
    5.6550   -1.2180    0.0000 C   0  0  0  0  0  0  0  0  0  0  0  0
    6.3695   -0.8055    0.0000 C   0  0  0  0  0  0  0  0  0  0  0  0
    7.0839   -1.2180    0.0000 C   0  0  0  0  0  0  0  0  0  0  0  0
    7.0839   -2.0430    0.0000 O   0  0  0  0  0  0  0  0  0  0  0  0
    7.7984   -0.8055    0.0000 O   0  0  0  0  0  0  0  0  0  0  0  0
    8.5129   -1.2180    0.0000 C   0  0  0  0  0  0  0  0  0  0  0  0
    9.2273   -0.8055    0.0000 C   0  0  0  0  0  0  0  0  0  0  0  0
    9.2273    0.0195    0.0000 O   0  0  0  0  0  0  0  0  0  0  0  0
    9.9418   -1.2180    0.0000 C   0  0  0  0  0  0  0  0  0  0  0  0
   10.0280   -2.0385    0.0000 O   0  0  0  0  0  0  0  0  0  0  0  0
   10.8350   -2.2100    0.0000 C   0  0  0  0  0  0  0  0  0  0  0  0
   11.2475   -1.4956    0.0000 C   0  0  0  0  0  0  0  0  0  0  0  0
   12.0680   -1.4093    0.0000 O   0  0  0  0  0  0  0  0  0  0  0  0
   10.6955   -0.8825    0.0000 C   0  0  0  0  0  0  0  0  0  0  0  0
   10.8670   -0.0755    0.0000 O   0  0  0  0  0  0  0  0  0  0  0  0
  1  2  1  0  0  0  0
  2  3  1  0  0  0  0
  3  4  1  0  0  0  0
  4  5  1  0  0  0  0
  5  6  1  0  0  0  0
  6  7  1  0  0  0  0
  7  8  1  0  0  0  0
  8  9  1  0  0  0  0
  9 10  1  0  0  0  0
 10 11  1  0  0  0  0
 11 12  1  0  0  0  0
 12 13  1  0  0  0  0
 13 14  1  0  0  0  0
 14 15  1  0  0  0  0
 15 16  1  0  0  0  0
 16 17  2  0  0  0  0
 16 18  1  0  0  0  0
 18 19  1  0  0  0  0
 19 20  1  0  0  0  0
 20 21  1  0  0  0  0
 20 22  1  0  0  0  0
 23 22  1  0  0  0  0
 24 23  1  0  0  0  0
 25 24  1  0  0  0  0
 25 26  1  0  0  0  0
 27 25  1  0  0  0  0
 22 27  1  0  0  0  0
 27 28  1  0  0  0  0
M  END
> <ChemID>
201615

> <CAS>
5050-91-9

> <Original_SMILES>
CCCCCCCCCCCCCCCC(=O)OCC(O)C1OCC(O)C1O

> <preferred_name>
Sorbitan monohexadecanoate

> <dsstox_substance_id>
DTXSID90873164

> <dsstox_compound_id>
DTXCID409335

> <qc_level>


> <Canonical_QSARr>
CCCCCCCCCCCCCCCC(=O)OCC(O)C1OCC(O)C1O

> <InChI_Code_QSARr>
InChI=1S/C22H42O6/c1-2-3-4-5-6-7-8-9-10-11-12-13-14-15-20(25)27-17-19(24)22-21(26)18(23)16-28-22/h18-19,21-24,26H,2-17H2,1H3

> <InChI Key_QSARr>
IYFATESGLOUGBX-UHFFFAOYSA-N

> <Salt_Solvent>


> <Salt_Solvent_ID>
0

> <MPID>
101376

> <Tr_1_Tst_0>
0

> <Ready_Biodeg>
1.0

$$$$
Row1342
  Mrv171c012251911052D          

 18 17  0  0  0  0            999 V2000
   -4.8478    0.2521    0.0000 C   0  0  0  0  0  0  0  0  0  0  0  0
   -4.1333   -0.1604    0.0000 C   0  0  0  0  0  0  0  0  0  0  0  0
   -3.4189    0.2521    0.0000 C   0  0  0  0  0  0  0  0  0  0  0  0
   -2.7044   -0.1604    0.0000 C   0  0  0  0  0  0  0  0  0  0  0  0
   -1.9899    0.2521    0.0000 C   0  0  0  0  0  0  0  0  0  0  0  0
   -1.2754   -0.1604    0.0000 C   0  0  0  0  0  0  0  0  0  0  0  0
   -0.5610    0.2521    0.0000 C   0  0  0  0  0  0  0  0  0  0  0  0
    0.1535   -0.1604    0.0000 C   0  0  0  0  0  0  0  0  0  0  0  0
    0.8680    0.2521    0.0000 C   0  0  0  0  0  0  0  0  0  0  0  0
    1.5824   -0.1604    0.0000 C   0  0  0  0  0  0  0  0  0  0  0  0
    2.2969    0.2521    0.0000 C   0  0  0  0  0  0  0  0  0  0  0  0
    3.0114   -0.1604    0.0000 C   0  0  0  0  0  0  0  0  0  0  0  0
    3.7259    0.2521    0.0000 C   0  0  0  0  0  0  0  0  0  0  0  0
    4.4403   -0.1604    0.0000 C   0  0  0  0  0  0  0  0  0  0  0  0
    5.1548    0.2521    0.0000 C   0  0  0  0  0  0  0  0  0  0  0  0
    5.8693   -0.1604    0.0000 C   0  0  0  0  0  0  0  0  0  0  0  0
    6.5837    0.2521    0.0000 N   0  0  0  0  0  0  0  0  0  0  0  0
    5.8693   -0.9854    0.0000 O   0  0  0  0  0  0  0  0  0  0  0  0
  1  2  1  0  0  0  0
  2  3  1  0  0  0  0
  3  4  1  0  0  0  0
  4  5  1  0  0  0  0
  5  6  1  0  0  0  0
  6  7  1  0  0  0  0
  7  8  1  0  0  0  0
  8  9  1  0  0  0  0
  9 10  1  0  0  0  0
 10 11  1  0  0  0  0
 11 12  1  0  0  0  0
 12 13  1  0  0  0  0
 13 14  1  0  0  0  0
 14 15  1  0  0  0  0
 15 16  1  0  0  0  0
 16 17  1  0  0  0  0
 16 18  2  0  0  0  0
M  END
> <ChemID>
201616

> <CAS>
629-54-9

> <Original_SMILES>
CCCCCCCCCCCCCCCC(N)=O

> <preferred_name>
Palmitamide

> <dsstox_substance_id>
DTXSID8044707

> <dsstox_compound_id>
DTXCID6024707

> <qc_level>


> <Canonical_QSARr>
CCCCCCCCCCCCCCCC(N)=O

> <InChI_Code_QSARr>
InChI=1S/C16H33NO/c1-2-3-4-5-6-7-8-9-10-11-12-13-14-15-16(17)18/h2-15H2,1H3,(H2,17,18)

> <InChI Key_QSARr>
HSEMFIZWXHQJAE-UHFFFAOYSA-N

> <Salt_Solvent>


> <Salt_Solvent_ID>
0

> <MPID>
101377

> <Tr_1_Tst_0>
1

> <Ready_Biodeg>
0.0

$$$$
Row1343
  Mrv171c012251911052D          

 17 16  0  0  0  0            999 V2000
   -4.8908    0.1941    0.0000 C   0  0  0  0  0  0  0  0  0  0  0  0
   -4.1763   -0.2184    0.0000 C   0  0  0  0  0  0  0  0  0  0  0  0
   -3.4618    0.1941    0.0000 C   0  0  0  0  0  0  0  0  0  0  0  0
   -2.7473   -0.2184    0.0000 C   0  0  0  0  0  0  0  0  0  0  0  0
   -2.0329    0.1941    0.0000 C   0  0  0  0  0  0  0  0  0  0  0  0
   -1.3184   -0.2184    0.0000 C   0  0  0  0  0  0  0  0  0  0  0  0
   -0.6039    0.1941    0.0000 C   0  0  0  0  0  0  0  0  0  0  0  0
    0.1105   -0.2184    0.0000 C   0  0  0  0  0  0  0  0  0  0  0  0
    0.8250    0.1941    0.0000 C   0  0  0  0  0  0  0  0  0  0  0  0
    1.5395   -0.2184    0.0000 C   0  0  0  0  0  0  0  0  0  0  0  0
    2.2539    0.1941    0.0000 C   0  0  0  0  0  0  0  0  0  0  0  0
    2.9684   -0.2184    0.0000 C   0  0  0  0  0  0  0  0  0  0  0  0
    3.6829    0.1941    0.0000 C   0  0  0  0  0  0  0  0  0  0  0  0
    4.3974   -0.2184    0.0000 C   0  0  0  0  0  0  0  0  0  0  0  0
    5.1118    0.1941    0.0000 C   0  0  0  0  0  0  0  0  0  0  0  0
    5.8263   -0.2184    0.0000 C   0  0  0  0  0  0  0  0  0  0  0  0
    6.5408    0.1941    0.0000 Br  0  0  0  0  0  0  0  0  0  0  0  0
  1  2  1  0  0  0  0
  2  3  1  0  0  0  0
  3  4  1  0  0  0  0
  4  5  1  0  0  0  0
  5  6  1  0  0  0  0
  6  7  1  0  0  0  0
  7  8  1  0  0  0  0
  8  9  1  0  0  0  0
  9 10  1  0  0  0  0
 10 11  1  0  0  0  0
 11 12  1  0  0  0  0
 12 13  1  0  0  0  0
 13 14  1  0  0  0  0
 14 15  1  0  0  0  0
 15 16  1  0  0  0  0
 16 17  1  0  0  0  0
M  END
> <ChemID>
201617

> <CAS>
112-82-3

> <Original_SMILES>
CCCCCCCCCCCCCCCCBr

> <preferred_name>
Hexadecane,1-bromo-

> <dsstox_substance_id>
DTXSID2049397

> <dsstox_compound_id>
DTXCID9029356

> <qc_level>


> <Canonical_QSARr>
CCCCCCCCCCCCCCCCBr

> <InChI_Code_QSARr>
InChI=1S/C16H33Br/c1-2-3-4-5-6-7-8-9-10-11-12-13-14-15-16-17/h2-16H2,1H3

> <InChI Key_QSARr>
HNTGIJLWHDPAFN-UHFFFAOYSA-N

> <Salt_Solvent>


> <Salt_Solvent_ID>
0

> <MPID>
101378

> <Tr_1_Tst_0>
1

> <Ready_Biodeg>
1.0

$$$$
Row1344
  Mrv171c012251911052D          

 25 25  0  0  0  0            999 V2000
    8.8204   -9.1013    0.0000 C   0  0  0  0  0  0  0  0  0  0  0  0
    9.5348   -8.6888    0.0000 C   0  0  0  0  0  0  0  0  0  0  0  0
   10.2493   -9.1013    0.0000 C   0  0  0  0  0  0  0  0  0  0  0  0
   10.9638   -8.6888    0.0000 C   0  0  0  0  0  0  0  0  0  0  0  0
   11.6783   -9.1013    0.0000 C   0  0  0  0  0  0  0  0  0  0  0  0
   12.3927   -8.6888    0.0000 C   0  0  0  0  0  0  0  0  0  0  0  0
   13.1072   -9.1013    0.0000 C   0  0  0  0  0  0  0  0  0  0  0  0
   13.8217   -8.6888    0.0000 C   0  0  0  0  0  0  0  0  0  0  0  0
   14.5361   -9.1013    0.0000 C   0  0  0  0  0  0  0  0  0  0  0  0
   15.2506   -8.6888    0.0000 C   0  0  0  0  0  0  0  0  0  0  0  0
   15.9651   -9.1013    0.0000 C   0  0  0  0  0  0  0  0  0  0  0  0
   16.6796   -8.6888    0.0000 C   0  0  0  0  0  0  0  0  0  0  0  0
   17.3940   -9.1013    0.0000 C   0  0  0  0  0  0  0  0  0  0  0  0
   18.1085   -8.6888    0.0000 C   0  0  0  0  0  0  0  0  0  0  0  0
   18.8230   -9.1013    0.0000 C   0  0  0  0  0  0  0  0  0  0  0  0
   19.5374   -8.6888    0.0000 C   0  0  0  0  0  0  0  0  0  0  0  0
   20.2519   -9.1013    0.0000 C   0  0  0  0  0  0  0  0  0  0  0  0
   20.9664   -8.6888    0.0000 C   0  0  0  0  0  0  0  0  0  0  0  0
   21.6809   -9.1013    0.0000 C   0  0  0  0  0  0  0  0  0  0  0  0
   22.4345   -8.7657    0.0000 C   0  0  0  0  0  0  0  0  0  0  0  0
   22.9866   -9.3788    0.0000 C   0  0  0  0  0  0  0  0  0  0  0  0
   23.8070   -9.2926    0.0000 O   0  0  0  0  0  0  0  0  0  0  0  0
   22.5741  -10.0933    0.0000 O   0  0  0  0  0  0  0  0  0  0  0  0
   21.7671   -9.9217    0.0000 C   0  0  0  0  0  0  0  0  0  0  0  0
   21.1540  -10.4738    0.0000 O   0  0  0  0  0  0  0  0  0  0  0  0
  1  2  1  0  0  0  0
  2  3  1  0  0  0  0
  3  4  1  0  0  0  0
  4  5  1  0  0  0  0
  5  6  1  0  0  0  0
  6  7  1  0  0  0  0
  7  8  1  0  0  0  0
  8  9  1  0  0  0  0
  9 10  1  0  0  0  0
 10 11  1  0  0  0  0
 11 12  1  0  0  0  0
 12 13  1  0  0  0  0
 13 14  1  0  0  0  0
 14 15  1  0  0  0  0
 15 16  1  0  0  0  0
 17 16  1  4  0  0  0
 17 18  2  0  0  0  0
 18 19  1  0  0  0  0
 19 20  1  0  0  0  0
 20 21  1  0  0  0  0
 21 22  2  0  0  0  0
 21 23  1  0  0  0  0
 23 24  1  0  0  0  0
 19 24  1  0  0  0  0
 24 25  2  0  0  0  0
M  END
> <ChemID>
201618

> <CAS>
28777-98-2

> <Original_SMILES>
CCCCCCCCCCCCCCCC/C=C/C1CC(=O)OC1=O

> <preferred_name>


> <dsstox_substance_id>
DTXSID9027948

> <dsstox_compound_id>


> <qc_level>


> <Canonical_QSARr>
CCCCCCCCCCCCCCCCC=CC1CC(=O)OC1=O

> <InChI_Code_QSARr>
InChI=1S/C22H38O3/c1-2-3-4-5-6-7-8-9-10-11-12-13-14-15-16-17-18-20-19-21(23)25-22(20)24/h17-18,20H,2-16,19H2,1H3

> <InChI Key_QSARr>
KAYAKFYASWYOEB-UHFFFAOYSA-N

> <Salt_Solvent>


> <Salt_Solvent_ID>
0

> <MPID>
101379

> <Tr_1_Tst_0>
1

> <Ready_Biodeg>
0.0

$$$$
Row1345
  Mrv171c012251911052D          

 30 30  0  0  0  0            999 V2000
   -3.6596   -0.9004    0.0000 C   0  0  0  0  0  0  0  0  0  0  0  0
   -2.9451   -1.3129    0.0000 C   0  0  0  0  0  0  0  0  0  0  0  0
   -2.2306   -0.9004    0.0000 C   0  0  0  0  0  0  0  0  0  0  0  0
   -1.5162   -1.3129    0.0000 C   0  0  0  0  0  0  0  0  0  0  0  0
   -0.8017   -0.9004    0.0000 C   0  0  0  0  0  0  0  0  0  0  0  0
   -0.0872   -1.3129    0.0000 C   0  0  0  0  0  0  0  0  0  0  0  0
    0.6272   -0.9004    0.0000 C   0  0  0  0  0  0  0  0  0  0  0  0
    1.3417   -1.3129    0.0000 C   0  0  0  0  0  0  0  0  0  0  0  0
    2.0562   -0.9004    0.0000 C   0  0  0  0  0  0  0  0  0  0  0  0
    2.7707   -1.3129    0.0000 C   0  0  0  0  0  0  0  0  0  0  0  0
    3.4851   -0.9004    0.0000 C   0  0  0  0  0  0  0  0  0  0  0  0
    4.1996   -1.3129    0.0000 C   0  0  0  0  0  0  0  0  0  0  0  0
    4.9141   -0.9004    0.0000 C   0  0  0  0  0  0  0  0  0  0  0  0
    5.6285   -1.3129    0.0000 C   0  0  0  0  0  0  0  0  0  0  0  0
    6.3430   -0.9004    0.0000 C   0  0  0  0  0  0  0  0  0  0  0  0
    7.0575   -1.3129    0.0000 C   0  0  0  0  0  0  0  0  0  0  0  0
    7.7720   -0.9004    0.0000 C   0  0  0  0  0  0  0  0  0  0  0  0
    8.4864   -1.3129    0.0000 C   0  0  0  0  0  0  0  0  0  0  0  0
    8.4864   -2.1379    0.0000 O   0  0  0  0  0  0  0  0  0  0  0  0
    9.2009   -0.9004    0.0000 O   0  0  0  0  0  0  0  0  0  0  0  0
    9.9154   -1.3129    0.0000 C   0  0  0  0  0  0  0  0  0  0  0  0
   10.6298   -0.9004    0.0000 C   0  0  0  0  0  0  0  0  0  0  0  0
   10.6298   -0.0754    0.0000 O   0  0  0  0  0  0  0  0  0  0  0  0
   11.3443   -1.3129    0.0000 C   0  0  0  0  0  0  0  0  0  0  0  0
   11.4305   -2.1334    0.0000 O   0  0  0  0  0  0  0  0  0  0  0  0
   12.2375   -2.3049    0.0000 C   0  0  0  0  0  0  0  0  0  0  0  0
   12.6500   -1.5905    0.0000 C   0  0  0  0  0  0  0  0  0  0  0  0
   13.4705   -1.5042    0.0000 O   0  0  0  0  0  0  0  0  0  0  0  0
   12.0980   -0.9774    0.0000 C   0  0  0  0  0  0  0  0  0  0  0  0
   12.2695   -0.1704    0.0000 O   0  0  0  0  0  0  0  0  0  0  0  0
  1  2  1  0  0  0  0
  2  3  1  0  0  0  0
  3  4  1  0  0  0  0
  4  5  1  0  0  0  0
  5  6  1  0  0  0  0
  6  7  1  0  0  0  0
  7  8  1  0  0  0  0
  8  9  1  0  0  0  0
  9 10  1  0  0  0  0
 10 11  1  0  0  0  0
 11 12  1  0  0  0  0
 12 13  1  0  0  0  0
 13 14  1  0  0  0  0
 14 15  1  0  0  0  0
 15 16  1  0  0  0  0
 16 17  1  0  0  0  0
 17 18  1  0  0  0  0
 18 19  2  0  0  0  0
 18 20  1  0  0  0  0
 20 21  1  0  0  0  0
 21 22  1  0  0  0  0
 22 23  1  0  0  0  0
 22 24  1  0  0  0  0
 25 24  1  0  0  0  0
 26 25  1  0  0  0  0
 27 26  1  0  0  0  0
 27 28  1  0  0  0  0
 29 27  1  0  0  0  0
 24 29  1  0  0  0  0
 29 30  1  0  0  0  0
M  END
> <ChemID>
201620

> <CAS>
1338-41-6

> <Original_SMILES>
CCCCCCCCCCCCCCCCCC(=O)OCC(O)C1OCC(O)C1O

> <preferred_name>
Sorbitan, monooctadecanoate

> <dsstox_substance_id>
DTXSID1027396

> <dsstox_compound_id>
DTXCID407396

> <qc_level>


> <Canonical_QSARr>
CCCCCCCCCCCCCCCCCC(=O)OCC(O)C1OCC(O)C1O

> <InChI_Code_QSARr>
InChI=1S/C24H46O6/c1-2-3-4-5-6-7-8-9-10-11-12-13-14-15-16-17-22(27)29-19-21(26)24-23(28)20(25)18-30-24/h20-21,23-26,28H,2-19H2,1H3

> <InChI Key_QSARr>
HVUMOYIDDBPOLL-UHFFFAOYSA-N

> <Salt_Solvent>


> <Salt_Solvent_ID>
0

> <MPID>
101380

> <Tr_1_Tst_0>
1

> <Ready_Biodeg>
1.0

$$$$
Row1346
  Mrv171c012251911052D          

 42 41  0  0  0  0            999 V2000
   -4.0340   -0.9206    0.0000 C   0  0  0  0  0  0  0  0  0  0  0  0
   -3.3195   -0.5081    0.0000 C   0  0  0  0  0  0  0  0  0  0  0  0
   -2.6051   -0.9206    0.0000 C   0  0  0  0  0  0  0  0  0  0  0  0
   -1.8906   -0.5081    0.0000 C   0  0  0  0  0  0  0  0  0  0  0  0
   -1.1761   -0.9206    0.0000 C   0  0  0  0  0  0  0  0  0  0  0  0
   -0.4617   -0.5081    0.0000 C   0  0  0  0  0  0  0  0  0  0  0  0
    0.2528   -0.9206    0.0000 C   0  0  0  0  0  0  0  0  0  0  0  0
    0.9673   -0.5081    0.0000 C   0  0  0  0  0  0  0  0  0  0  0  0
    1.6818   -0.9206    0.0000 C   0  0  0  0  0  0  0  0  0  0  0  0
    2.3962   -0.5081    0.0000 C   0  0  0  0  0  0  0  0  0  0  0  0
    3.1107   -0.9206    0.0000 C   0  0  0  0  0  0  0  0  0  0  0  0
    3.8252   -0.5081    0.0000 C   0  0  0  0  0  0  0  0  0  0  0  0
    4.5396   -0.9206    0.0000 C   0  0  0  0  0  0  0  0  0  0  0  0
    5.2541   -0.5081    0.0000 C   0  0  0  0  0  0  0  0  0  0  0  0
    5.9686   -0.9206    0.0000 C   0  0  0  0  0  0  0  0  0  0  0  0
    6.6830   -0.5081    0.0000 C   0  0  0  0  0  0  0  0  0  0  0  0
    7.3975   -0.9206    0.0000 C   0  0  0  0  0  0  0  0  0  0  0  0
    8.1120   -0.5081    0.0000 C   0  0  0  0  0  0  0  0  0  0  0  0
    8.1120    0.3169    0.0000 O   0  0  0  0  0  0  0  0  0  0  0  0
    8.8265   -0.9206    0.0000 O   0  0  0  0  0  0  0  0  0  0  0  0
    9.5409   -0.5081    0.0000 C   0  0  0  0  0  0  0  0  0  0  0  0
   10.2554   -0.9206    0.0000 C   0  0  0  0  0  0  0  0  0  0  0  0
   10.9699   -0.5081    0.0000 O   0  0  0  0  0  0  0  0  0  0  0  0
   11.6843   -0.9206    0.0000 C   0  0  0  0  0  0  0  0  0  0  0  0
   11.6843   -1.7456    0.0000 O   0  0  0  0  0  0  0  0  0  0  0  0
   12.3988   -0.5081    0.0000 C   0  0  0  0  0  0  0  0  0  0  0  0
   13.1133   -0.9206    0.0000 C   0  0  0  0  0  0  0  0  0  0  0  0
   13.8278   -0.5081    0.0000 C   0  0  0  0  0  0  0  0  0  0  0  0
   14.5422   -0.9206    0.0000 C   0  0  0  0  0  0  0  0  0  0  0  0
   15.2567   -0.5081    0.0000 C   0  0  0  0  0  0  0  0  0  0  0  0
   15.9712   -0.9206    0.0000 C   0  0  0  0  0  0  0  0  0  0  0  0
   16.6856   -0.5081    0.0000 C   0  0  0  0  0  0  0  0  0  0  0  0
   17.4001   -0.9206    0.0000 C   0  0  0  0  0  0  0  0  0  0  0  0
   18.1146   -0.5081    0.0000 C   0  0  0  0  0  0  0  0  0  0  0  0
   18.8291   -0.9206    0.0000 C   0  0  0  0  0  0  0  0  0  0  0  0
   19.5435   -0.5081    0.0000 C   0  0  0  0  0  0  0  0  0  0  0  0
   20.2580   -0.9206    0.0000 C   0  0  0  0  0  0  0  0  0  0  0  0
   20.9725   -0.5081    0.0000 C   0  0  0  0  0  0  0  0  0  0  0  0
   21.6869   -0.9206    0.0000 C   0  0  0  0  0  0  0  0  0  0  0  0
   22.4014   -0.5081    0.0000 C   0  0  0  0  0  0  0  0  0  0  0  0
   23.1159   -0.9206    0.0000 C   0  0  0  0  0  0  0  0  0  0  0  0
   23.8304   -0.5081    0.0000 C   0  0  0  0  0  0  0  0  0  0  0  0
  1  2  1  0  0  0  0
  2  3  1  0  0  0  0
  3  4  1  0  0  0  0
  4  5  1  0  0  0  0
  5  6  1  0  0  0  0
  6  7  1  0  0  0  0
  7  8  1  0  0  0  0
  8  9  1  0  0  0  0
  9 10  1  0  0  0  0
 10 11  1  0  0  0  0
 11 12  1  0  0  0  0
 12 13  1  0  0  0  0
 13 14  1  0  0  0  0
 14 15  1  0  0  0  0
 15 16  1  0  0  0  0
 16 17  1  0  0  0  0
 17 18  1  0  0  0  0
 18 19  2  0  0  0  0
 18 20  1  0  0  0  0
 20 21  1  0  0  0  0
 21 22  1  0  0  0  0
 22 23  1  0  0  0  0
 23 24  1  0  0  0  0
 24 25  2  0  0  0  0
 24 26  1  0  0  0  0
 26 27  1  0  0  0  0
 27 28  1  0  0  0  0
 28 29  1  0  0  0  0
 29 30  1  0  0  0  0
 30 31  1  0  0  0  0
 31 32  1  0  0  0  0
 32 33  1  0  0  0  0
 33 34  1  0  0  0  0
 34 35  1  0  0  0  0
 35 36  1  0  0  0  0
 36 37  1  0  0  0  0
 37 38  1  0  0  0  0
 38 39  1  0  0  0  0
 39 40  1  0  0  0  0
 40 41  1  0  0  0  0
 41 42  1  0  0  0  0
M  END
> <ChemID>
201621

> <CAS>
627-83-8

> <Original_SMILES>
CCCCCCCCCCCCCCCCCC(=O)OCCOC(=O)CCCCCCCCCCCCCCCCC

> <preferred_name>
Octadecanoic acid, 1,2-ethanediyl ester

> <dsstox_substance_id>
DTXSID6027260

> <dsstox_compound_id>
DTXCID907260

> <qc_level>


> <Canonical_QSARr>
CCCCCCCCCCCCCCCCCC(=O)OCCOC(=O)CCCCCCCCCCCCCCCCC

> <InChI_Code_QSARr>
InChI=1S/C38H74O4/c1-3-5-7-9-11-13-15-17-19-21-23-25-27-29-31-33-37(39)41-35-36-42-38(40)34-32-30-28-26-24-22-20-18-16-14-12-10-8-6-4-2/h3-36H2,1-2H3

> <InChI Key_QSARr>
FPVVYTCTZKCSOJ-UHFFFAOYSA-N

> <Salt_Solvent>


> <Salt_Solvent_ID>
0

> <MPID>
101381

> <Tr_1_Tst_0>
1

> <Ready_Biodeg>
1.0

$$$$
Row1347
  Mrv171c012251911052D          

 21 21  0  0  0  0            999 V2000
  -13.6837    1.2504    0.0000 C   0  0  0  0  0  0  0  0  0  0  0  0
  -12.9692    0.8379    0.0000 C   0  0  0  0  0  0  0  0  0  0  0  0
  -12.2547    1.2504    0.0000 C   0  0  0  0  0  0  0  0  0  0  0  0
  -11.5403    0.8379    0.0000 C   0  0  0  0  0  0  0  0  0  0  0  0
  -10.8258    1.2504    0.0000 C   0  0  0  0  0  0  0  0  0  0  0  0
  -10.1113    0.8379    0.0000 C   0  0  0  0  0  0  0  0  0  0  0  0
   -9.3968    1.2504    0.0000 C   0  0  0  0  0  0  0  0  0  0  0  0
   -8.6824    0.8379    0.0000 C   0  0  0  0  0  0  0  0  0  0  0  0
   -7.9679    1.2504    0.0000 C   0  0  0  0  0  0  0  0  0  0  0  0
   -7.2534    0.8379    0.0000 C   0  0  0  0  0  0  0  0  0  0  0  0
   -6.5390    1.2504    0.0000 C   0  0  0  0  0  0  0  0  0  0  0  0
   -5.8245    0.8379    0.0000 C   0  0  0  0  0  0  0  0  0  0  0  0
   -5.1100    1.2504    0.0000 C   0  0  0  0  0  0  0  0  0  0  0  0
   -4.3955    0.8379    0.0000 C   0  0  0  0  0  0  0  0  0  0  0  0
   -3.6811    1.2504    0.0000 C   0  0  0  0  0  0  0  0  0  0  0  0
   -2.9666    0.8379    0.0000 C   0  0  0  0  0  0  0  0  0  0  0  0
   -2.2521    1.2504    0.0000 C   0  0  0  0  0  0  0  0  0  0  0  0
   -1.5377    0.8379    0.0000 C   0  0  0  0  0  0  0  0  0  0  0  0
   -0.8232    1.2504    0.0000 C   0  0  0  0  0  0  0  0  0  0  0  0
    0.0018    1.2504    0.0000 C   0  0  0  0  0  0  0  0  0  0  0  0
   -0.4107    1.9649    0.0000 O   0  0  0  0  0  0  0  0  0  0  0  0
  1  2  1  0  0  0  0
  2  3  1  0  0  0  0
  3  4  1  0  0  0  0
  4  5  1  0  0  0  0
  5  6  1  0  0  0  0
  6  7  1  0  0  0  0
  7  8  1  0  0  0  0
  8  9  1  0  0  0  0
  9 10  1  0  0  0  0
 10 11  1  0  0  0  0
 11 12  1  0  0  0  0
 12 13  1  0  0  0  0
 13 14  1  0  0  0  0
 14 15  1  0  0  0  0
 15 16  1  0  0  0  0
 16 17  1  0  0  0  0
 17 18  1  0  0  0  0
 18 19  1  0  0  0  0
 20 19  1  0  0  0  0
 21 20  1  0  0  0  0
 19 21  1  0  0  0  0
M  END
> <ChemID>
201623

> <CAS>
19780-16-6

> <Original_SMILES>
CCCCCCCCCCCCCCCCCCC1CO1

> <preferred_name>


> <dsstox_substance_id>


> <dsstox_compound_id>


> <qc_level>


> <Canonical_QSARr>
CCCCCCCCCCCCCCCCCCC1CO1

> <InChI_Code_QSARr>
InChI=1S/C20H40O/c1-2-3-4-5-6-7-8-9-10-11-12-13-14-15-16-17-18-20-19-21-20/h20H,2-19H2,1H3

> <InChI Key_QSARr>
BHZBVWCLMYQFQX-UHFFFAOYSA-N

> <Salt_Solvent>


> <Salt_Solvent_ID>
0

> <MPID>
101382

> <Tr_1_Tst_0>
0

> <Ready_Biodeg>
1.0

$$$$
Row1348
  Mrv171c012251911052D          

 24 23  0  0  0  0            999 V2000
   -4.5129    0.2406    0.0000 C   0  0  0  0  0  0  0  0  0  0  0  0
   -3.7984   -0.1719    0.0000 C   0  0  0  0  0  0  0  0  0  0  0  0
   -3.0840    0.2406    0.0000 C   0  0  0  0  0  0  0  0  0  0  0  0
   -2.3695   -0.1719    0.0000 C   0  0  0  0  0  0  0  0  0  0  0  0
   -1.6550    0.2406    0.0000 C   0  0  0  0  0  0  0  0  0  0  0  0
   -0.9406   -0.1719    0.0000 C   0  0  0  0  0  0  0  0  0  0  0  0
   -0.2261    0.2406    0.0000 C   0  0  0  0  0  0  0  0  0  0  0  0
    0.4884   -0.1719    0.0000 C   0  0  0  0  0  0  0  0  0  0  0  0
    1.2029    0.2406    0.0000 C   0  0  0  0  0  0  0  0  0  0  0  0
    1.9173   -0.1719    0.0000 C   0  0  0  0  0  0  0  0  0  0  0  0
    2.6318    0.2406    0.0000 C   0  0  0  0  0  0  0  0  0  0  0  0
    3.3463   -0.1719    0.0000 C   0  0  0  0  0  0  0  0  0  0  0  0
    4.0607    0.2406    0.0000 C   0  0  0  0  0  0  0  0  0  0  0  0
    4.7752   -0.1719    0.0000 C   0  0  0  0  0  0  0  0  0  0  0  0
    5.4897    0.2406    0.0000 C   0  0  0  0  0  0  0  0  0  0  0  0
    6.2042   -0.1719    0.0000 C   0  0  0  0  0  0  0  0  0  0  0  0
    6.9186    0.2406    0.0000 C   0  0  0  0  0  0  0  0  0  0  0  0
    7.6331   -0.1719    0.0000 C   0  0  0  0  0  0  0  0  0  0  0  0
    8.3476    0.2406    0.0000 C   0  0  0  0  0  0  0  0  0  0  0  0
    9.0620   -0.1719    0.0000 C   0  0  0  0  0  0  0  0  0  0  0  0
    9.7765    0.2406    0.0000 C   0  0  0  0  0  0  0  0  0  0  0  0
   10.4910   -0.1719    0.0000 C   0  0  0  0  0  0  0  0  0  0  0  0
   11.2055    0.2406    0.0000 N   0  0  0  0  0  0  0  0  0  0  0  0
   10.4910   -0.9969    0.0000 O   0  0  0  0  0  0  0  0  0  0  0  0
  1  2  1  0  0  0  0
  2  3  1  0  0  0  0
  3  4  1  0  0  0  0
  4  5  1  0  0  0  0
  5  6  1  0  0  0  0
  6  7  1  0  0  0  0
  7  8  1  0  0  0  0
  8  9  1  0  0  0  0
  9 10  1  0  0  0  0
 10 11  1  0  0  0  0
 11 12  1  0  0  0  0
 12 13  1  0  0  0  0
 13 14  1  0  0  0  0
 14 15  1  0  0  0  0
 15 16  1  0  0  0  0
 16 17  1  0  0  0  0
 17 18  1  0  0  0  0
 18 19  1  0  0  0  0
 19 20  1  0  0  0  0
 20 21  1  0  0  0  0
 21 22  1  0  0  0  0
 22 23  1  0  0  0  0
 22 24  2  0  0  0  0
M  END
> <ChemID>
201625

> <CAS>
3061-75-4

> <Original_SMILES>
CCCCCCCCCCCCCCCCCCCCCC(N)=O

> <preferred_name>
Docosanamide

> <dsstox_substance_id>
DTXSID7062821

> <dsstox_compound_id>
DTXCID8038223

> <qc_level>


> <Canonical_QSARr>
CCCCCCCCCCCCCCCCCCCCCC(N)=O

> <InChI_Code_QSARr>
InChI=1S/C22H45NO/c1-2-3-4-5-6-7-8-9-10-11-12-13-14-15-16-17-18-19-20-21-22(23)24/h2-21H2,1H3,(H2,23,24)

> <InChI Key_QSARr>
ORAWFNKFUWGRJG-UHFFFAOYSA-N

> <Salt_Solvent>


> <Salt_Solvent_ID>
0

> <MPID>
101383

> <Tr_1_Tst_0>
1

> <Ready_Biodeg>
0.0

$$$$
Row1349
  Mrv171c012251911052D          

 31 30  0  0  0  0            999 V2000
   -3.4342    0.1221    0.0000 C   0  0  0  0  0  0  0  0  0  0  0  0
   -2.7198    0.5346    0.0000 C   0  0  0  0  0  0  0  0  0  0  0  0
   -2.0053    0.1221    0.0000 C   0  0  0  0  0  0  0  0  0  0  0  0
   -1.2908    0.5346    0.0000 C   0  0  0  0  0  0  0  0  0  0  0  0
   -0.5764    0.1221    0.0000 C   0  0  0  0  0  0  0  0  0  0  0  0
    0.1381    0.5346    0.0000 C   0  0  0  0  0  0  0  0  0  0  0  0
    0.8526    0.1221    0.0000 C   0  0  0  0  0  0  0  0  0  0  0  0
    1.5670    0.5346    0.0000 C   0  0  0  0  0  0  0  0  0  0  0  0
    2.2815    0.1221    0.0000 C   0  0  0  0  0  0  0  0  0  0  0  0
    2.9960    0.5346    0.0000 C   0  0  0  0  0  0  0  0  0  0  0  0
    3.7105    0.1221    0.0000 C   0  0  0  0  0  0  0  0  0  0  0  0
    4.4249    0.5346    0.0000 C   0  0  0  0  0  0  0  0  0  0  0  0
    5.1394    0.1221    0.0000 C   0  0  0  0  0  0  0  0  0  0  0  0
    5.8539    0.5346    0.0000 C   0  0  0  0  0  0  0  0  0  0  0  0
    6.5683    0.1221    0.0000 C   0  0  0  0  0  0  0  0  0  0  0  0
    7.2828    0.5346    0.0000 C   0  0  0  0  0  0  0  0  0  0  0  0
    7.9973    0.1221    0.0000 C   0  0  0  0  0  0  0  0  0  0  0  0
    8.7118    0.5346    0.0000 C   0  0  0  0  0  0  0  0  0  0  0  0
    9.4262    0.1221    0.0000 N   0  0  0  0  0  0  0  0  0  0  0  0
   10.1407    0.5346    0.0000 C   0  0  0  0  0  0  0  0  0  0  0  0
   10.1407    1.3596    0.0000 O   0  0  0  0  0  0  0  0  0  0  0  0
   10.8552    0.1221    0.0000 C   0  0  0  0  0  0  0  0  0  0  0  0
   10.8552   -0.7029    0.0000 O   0  0  0  0  0  0  0  0  0  0  0  0
   11.5696    0.5346    0.0000 C   0  0  0  0  0  0  0  0  0  0  0  0
   11.5696    1.3596    0.0000 O   0  0  0  0  0  0  0  0  0  0  0  0
   12.2841    0.1221    0.0000 C   0  0  0  0  0  0  0  0  0  0  0  0
   12.2841   -0.7029    0.0000 O   0  0  0  0  0  0  0  0  0  0  0  0
   12.9986    0.5346    0.0000 C   0  0  0  0  0  0  0  0  0  0  0  0
   12.9986    1.3596    0.0000 O   0  0  0  0  0  0  0  0  0  0  0  0
   13.7131    0.1221    0.0000 C   0  0  0  0  0  0  0  0  0  0  0  0
   14.4275    0.5346    0.0000 O   0  0  0  0  0  0  0  0  0  0  0  0
  1  2  1  0  0  0  0
  2  3  1  0  0  0  0
  3  4  1  0  0  0  0
  4  5  1  0  0  0  0
  5  6  1  0  0  0  0
  6  7  1  0  0  0  0
  7  8  1  0  0  0  0
  8  9  1  0  0  0  0
  9 10  1  0  0  0  0
 10 11  1  0  0  0  0
 11 12  1  0  0  0  0
 12 13  1  0  0  0  0
 13 14  1  0  0  0  0
 14 15  1  0  0  0  0
 15 16  1  0  0  0  0
 16 17  1  0  0  0  0
 17 18  1  0  0  0  0
 18 19  1  0  0  0  0
 19 20  1  0  0  0  0
 20 21  2  0  0  0  0
 20 22  1  0  0  0  0
 22 23  1  0  0  0  0
 22 24  1  0  0  0  0
 24 25  1  0  0  0  0
 24 26  1  0  0  0  0
 26 27  1  0  0  0  0
 26 28  1  0  0  0  0
 28 29  1  0  0  0  0
 28 30  1  0  0  0  0
 30 31  1  0  0  0  0
M  END
> <ChemID>
201628

> <CAS>
18375-66-1

> <Original_SMILES>
CCCCCCCCCCCCCCCCCCNC(=O)C(O)C(O)C(O)C(O)CO

> <preferred_name>


> <dsstox_substance_id>


> <dsstox_compound_id>


> <qc_level>


> <Canonical_QSARr>
CCCCCCCCCCCCCCCCCCNC(=O)C(O)C(O)C(O)C(O)CO

> <InChI_Code_QSARr>
InChI=1S/C24H49NO6/c1-2-3-4-5-6-7-8-9-10-11-12-13-14-15-16-17-18-25-24(31)23(30)22(29)21(28)20(27)19-26/h20-23,26-30H,2-19H2,1H3,(H,25,31)

> <InChI Key_QSARr>
NXLFPCFLIXFFRH-UHFFFAOYSA-N

> <Salt_Solvent>


> <Salt_Solvent_ID>
0

> <MPID>
101384

> <Tr_1_Tst_0>
1

> <Ready_Biodeg>
0.0

$$$$
Row1350
  Mrv171c012251911052D          

 24 24  0  0  0  0            999 V2000
   -4.6313    0.0151    0.0000 C   0  0  0  0  0  0  0  0  0  0  0  0
   -3.9168   -0.3974    0.0000 C   0  0  0  0  0  0  0  0  0  0  0  0
   -3.2024    0.0151    0.0000 C   0  0  0  0  0  0  0  0  0  0  0  0
   -2.4879   -0.3974    0.0000 C   0  0  0  0  0  0  0  0  0  0  0  0
   -1.7734    0.0151    0.0000 C   0  0  0  0  0  0  0  0  0  0  0  0
   -1.0590   -0.3974    0.0000 C   0  0  0  0  0  0  0  0  0  0  0  0
   -0.3445    0.0151    0.0000 C   0  0  0  0  0  0  0  0  0  0  0  0
    0.3700   -0.3974    0.0000 C   0  0  0  0  0  0  0  0  0  0  0  0
    1.0844    0.0151    0.0000 C   0  0  0  0  0  0  0  0  0  0  0  0
    1.7989   -0.3974    0.0000 C   0  0  0  0  0  0  0  0  0  0  0  0
    2.5134    0.0151    0.0000 C   0  0  0  0  0  0  0  0  0  0  0  0
    3.2279   -0.3974    0.0000 C   0  0  0  0  0  0  0  0  0  0  0  0
    3.9423    0.0151    0.0000 C   0  0  0  0  0  0  0  0  0  0  0  0
    4.6568   -0.3974    0.0000 C   0  0  0  0  0  0  0  0  0  0  0  0
    5.3713    0.0151    0.0000 C   0  0  0  0  0  0  0  0  0  0  0  0
    6.0857   -0.3974    0.0000 C   0  0  0  0  0  0  0  0  0  0  0  0
    6.8002    0.0151    0.0000 C   0  0  0  0  0  0  0  0  0  0  0  0
    7.5147   -0.3974    0.0000 C   0  0  0  0  0  0  0  0  0  0  0  0
    8.2292    0.0151    0.0000 N   0  0  0  0  0  0  0  0  0  0  0  0
    8.9436   -0.3974    0.0000 C   0  0  0  0  0  0  0  0  0  0  0  0
    8.9436   -1.2224    0.0000 O   0  0  0  0  0  0  0  0  0  0  0  0
    9.6581    0.0151    0.0000 N   0  0  0  0  0  0  0  0  0  0  0  0
   10.4831    0.0151    0.0000 C   0  0  0  0  0  0  0  0  0  0  0  0
   10.0706    0.7295    0.0000 C   0  0  0  0  0  0  0  0  0  0  0  0
  1  2  1  0  0  0  0
  2  3  1  0  0  0  0
  3  4  1  0  0  0  0
  4  5  1  0  0  0  0
  5  6  1  0  0  0  0
  6  7  1  0  0  0  0
  7  8  1  0  0  0  0
  8  9  1  0  0  0  0
  9 10  1  0  0  0  0
 10 11  1  0  0  0  0
 11 12  1  0  0  0  0
 12 13  1  0  0  0  0
 13 14  1  0  0  0  0
 14 15  1  0  0  0  0
 15 16  1  0  0  0  0
 16 17  1  0  0  0  0
 17 18  1  0  0  0  0
 18 19  1  0  0  0  0
 19 20  1  0  0  0  0
 20 21  2  0  0  0  0
 20 22  1  0  0  0  0
 23 22  1  0  0  0  0
 24 23  1  0  0  0  0
 22 24  1  0  0  0  0
M  END
> <ChemID>
201629

> <CAS>
3891-29-0

> <Original_SMILES>
CCCCCCCCCCCCCCCCCCNC(=O)N1CC1

> <preferred_name>
1-Aziridinecarboxamide, N-octadecyl-

> <dsstox_substance_id>
DTXSID6063226

> <dsstox_compound_id>
DTXCID9039579

> <qc_level>


> <Canonical_QSARr>
CCCCCCCCCCCCCCCCCCNC(=O)N1CC1

> <InChI_Code_QSARr>
InChI=1S/C21H42N2O/c1-2-3-4-5-6-7-8-9-10-11-12-13-14-15-16-17-18-22-21(24)23-19-20-23/h2-20H2,1H3,(H,22,24)

> <InChI Key_QSARr>
MEMUMYCLWQPAEX-UHFFFAOYSA-N

> <Salt_Solvent>


> <Salt_Solvent_ID>
0

> <MPID>
101385

> <Tr_1_Tst_0>
1

> <Ready_Biodeg>
0.0

$$$$
Row1351
  Mrv171c012251911052D          

 38 38  0  0  0  0            999 V2000
   -4.9287    0.9682    0.0000 C   0  0  0  0  0  0  0  0  0  0  0  0
   -4.2143    0.5557    0.0000 C   0  0  0  0  0  0  0  0  0  0  0  0
   -3.4998    0.9682    0.0000 C   0  0  0  0  0  0  0  0  0  0  0  0
   -2.7853    0.5557    0.0000 C   0  0  0  0  0  0  0  0  0  0  0  0
   -2.0708    0.9682    0.0000 C   0  0  0  0  0  0  0  0  0  0  0  0
   -1.3564    0.5557    0.0000 C   0  0  0  0  0  0  0  0  0  0  0  0
   -0.6419    0.9682    0.0000 C   0  0  0  0  0  0  0  0  0  0  0  0
    0.0726    0.5557    0.0000 C   0  0  0  0  0  0  0  0  0  0  0  0
    0.7870    0.9682    0.0000 C   0  0  0  0  0  0  0  0  0  0  0  0
    1.5015    0.5557    0.0000 C   0  0  0  0  0  0  0  0  0  0  0  0
    2.2160    0.9682    0.0000 C   0  0  0  0  0  0  0  0  0  0  0  0
    2.9305    0.5557    0.0000 C   0  0  0  0  0  0  0  0  0  0  0  0
    3.6449    0.9682    0.0000 C   0  0  0  0  0  0  0  0  0  0  0  0
    4.3594    0.5557    0.0000 C   0  0  0  0  0  0  0  0  0  0  0  0
    5.0739    0.9682    0.0000 C   0  0  0  0  0  0  0  0  0  0  0  0
    5.7883    0.5557    0.0000 C   0  0  0  0  0  0  0  0  0  0  0  0
    6.5028    0.9682    0.0000 C   0  0  0  0  0  0  0  0  0  0  0  0
    7.2173    0.5557    0.0000 C   0  0  0  0  0  0  0  0  0  0  0  0
    7.9318    0.9682    0.0000 O   0  0  0  0  0  0  0  0  0  0  0  0
    8.6462    0.5557    0.0000 C   0  0  0  0  0  0  0  0  0  0  0  0
    8.6462   -0.2693    0.0000 O   0  0  0  0  0  0  0  0  0  0  0  0
    9.3607    0.9682    0.0000 C   0  0  0  0  0  0  0  0  0  0  0  0
   10.0752    0.5557    0.0000 C   0  0  0  0  0  0  0  0  0  0  0  0
   10.7896    0.9682    0.0000 C   0  0  0  0  0  0  0  0  0  0  0  0
   11.5041    0.5557    0.0000 C   0  0  0  0  0  0  0  0  0  0  0  0
   12.2186    0.9682    0.0000 C   0  0  0  0  0  0  0  0  0  0  0  0
   12.9330    0.5557    0.0000 C   0  0  0  0  0  0  0  0  0  0  0  0
   13.6475    0.1432    0.0000 C   0  0  0  0  0  0  0  0  0  0  0  0
   12.5205   -0.1587    0.0000 C   0  0  0  0  0  0  0  0  0  0  0  0
   13.3455    1.2702    0.0000 C   0  0  0  0  0  0  0  0  0  0  0  0
   12.2186    1.7932    0.0000 C   0  0  0  0  0  0  0  0  0  0  0  0
   12.9330    2.2057    0.0000 O   0  0  0  0  0  0  0  0  0  0  0  0
   11.5041    2.2057    0.0000 C   0  0  0  0  0  0  0  0  0  0  0  0
   11.5041    3.0307    0.0000 C   0  0  0  0  0  0  0  0  0  0  0  0
   11.5041    3.8557    0.0000 C   0  0  0  0  0  0  0  0  0  0  0  0
   10.6791    3.0307    0.0000 C   0  0  0  0  0  0  0  0  0  0  0  0
   12.3291    3.0307    0.0000 C   0  0  0  0  0  0  0  0  0  0  0  0
   10.7896    1.7932    0.0000 C   0  0  0  0  0  0  0  0  0  0  0  0
  1  2  1  0  0  0  0
  2  3  1  0  0  0  0
  3  4  1  0  0  0  0
  4  5  1  0  0  0  0
  5  6  1  0  0  0  0
  6  7  1  0  0  0  0
  7  8  1  0  0  0  0
  8  9  1  0  0  0  0
  9 10  1  0  0  0  0
 10 11  1  0  0  0  0
 11 12  1  0  0  0  0
 12 13  1  0  0  0  0
 13 14  1  0  0  0  0
 14 15  1  0  0  0  0
 15 16  1  0  0  0  0
 16 17  1  0  0  0  0
 17 18  1  0  0  0  0
 18 19  1  0  0  0  0
 19 20  1  0  0  0  0
 20 21  2  0  0  0  0
 20 22  1  0  0  0  0
 22 23  1  0  0  0  0
 23 24  1  0  0  0  0
 25 24  2  0  0  0  0
 26 25  1  0  0  0  0
 26 27  1  0  0  0  0
 27 28  1  0  0  0  0
 27 29  1  0  0  0  0
 27 30  1  0  0  0  0
 31 26  2  0  0  0  0
 31 32  1  0  0  0  0
 33 31  1  0  0  0  0
 33 34  1  0  0  0  0
 34 35  1  0  0  0  0
 34 36  1  0  0  0  0
 34 37  1  0  0  0  0
 38 33  2  0  0  0  0
 24 38  1  0  0  0  0
M  END
> <ChemID>
201631

> <CAS>
2082-79-3

> <Original_SMILES>
CCCCCCCCCCCCCCCCCCOC(=O)CCc1cc(c(O)c(c1)C(C)(C)C)C(C)(C)C

> <preferred_name>
Octadecyl 3-(3,5-di-tert-butyl-4-hydroxyphenyl)propionate

> <dsstox_substance_id>
DTXSID8027456

> <dsstox_compound_id>
DTXCID407456

> <qc_level>


> <Canonical_QSARr>
CCCCCCCCCCCCCCCCCCOC(=O)CCC1C=C(C(O)=C(C=1)C(C)(C)C)C(C)(C)C

> <InChI_Code_QSARr>
InChI=1S/C35H62O3/c1-8-9-10-11-12-13-14-15-16-17-18-19-20-21-22-23-26-38-32(36)25-24-29-27-30(34(2,3)4)33(37)31(28-29)35(5,6)7/h27-28,37H,8-26H2,1-7H3

> <InChI Key_QSARr>
SSDSCDGVMJFTEQ-UHFFFAOYSA-N

> <Salt_Solvent>


> <Salt_Solvent_ID>
0

> <MPID>
101386

> <Tr_1_Tst_0>
0

> <Ready_Biodeg>
0.0

$$$$
Row1352
  Mrv171c012251911052D          

 58 57  0  0  0  0            999 V2000
   -3.2514  -18.0075    0.0000 C   0  0  0  0  0  0  0  0  0  0  0  0
   -3.2514  -17.1825    0.0000 C   0  0  0  0  0  0  0  0  0  0  0  0
   -3.9658  -16.7700    0.0000 C   0  0  0  0  0  0  0  0  0  0  0  0
   -3.9658  -15.9450    0.0000 C   0  0  0  0  0  0  0  0  0  0  0  0
   -4.6803  -15.5325    0.0000 C   0  0  0  0  0  0  0  0  0  0  0  0
   -4.6803  -14.7075    0.0000 C   0  0  0  0  0  0  0  0  0  0  0  0
   -5.3948  -14.2950    0.0000 C   0  0  0  0  0  0  0  0  0  0  0  0
   -5.3948  -13.4700    0.0000 C   0  0  0  0  0  0  0  0  0  0  0  0
   -6.1092  -13.0575    0.0000 C   0  0  0  0  0  0  0  0  0  0  0  0
   -6.1092  -12.2325    0.0000 C   0  0  0  0  0  0  0  0  0  0  0  0
   -6.8237  -11.8200    0.0000 C   0  0  0  0  0  0  0  0  0  0  0  0
   -6.8237  -10.9950    0.0000 C   0  0  0  0  0  0  0  0  0  0  0  0
   -7.5382  -10.5825    0.0000 C   0  0  0  0  0  0  0  0  0  0  0  0
   -7.5382   -9.7575    0.0000 C   0  0  0  0  0  0  0  0  0  0  0  0
   -8.2527   -9.3450    0.0000 C   0  0  0  0  0  0  0  0  0  0  0  0
   -8.2527   -8.5200    0.0000 C   0  0  0  0  0  0  0  0  0  0  0  0
   -8.9671   -8.1075    0.0000 C   0  0  0  0  0  0  0  0  0  0  0  0
   -8.9671   -7.2825    0.0000 C   0  0  0  0  0  0  0  0  0  0  0  0
   -9.6816   -6.8700    0.0000 O   0  0  0  0  0  0  0  0  0  0  0  0
   -9.6816   -6.0450    0.0000 P   0  0  0  0  0  0  0  0  0  0  0  0
  -10.3961   -5.6325    0.0000 O   0  0  0  0  0  0  0  0  0  0  0  0
  -10.3961   -4.8075    0.0000 C   0  0  0  0  0  0  0  0  0  0  0  0
  -11.1105   -4.3950    0.0000 C   0  0  0  0  0  0  0  0  0  0  0  0
  -11.1105   -3.5700    0.0000 C   0  0  0  0  0  0  0  0  0  0  0  0
  -11.8250   -3.1575    0.0000 C   0  0  0  0  0  0  0  0  0  0  0  0
  -11.8250   -2.3325    0.0000 C   0  0  0  0  0  0  0  0  0  0  0  0
  -12.5395   -1.9200    0.0000 C   0  0  0  0  0  0  0  0  0  0  0  0
  -12.5395   -1.0950    0.0000 C   0  0  0  0  0  0  0  0  0  0  0  0
  -13.2539   -0.6825    0.0000 C   0  0  0  0  0  0  0  0  0  0  0  0
  -13.2539    0.1425    0.0000 C   0  0  0  0  0  0  0  0  0  0  0  0
  -13.9684    0.5550    0.0000 C   0  0  0  0  0  0  0  0  0  0  0  0
  -13.9684    1.3800    0.0000 C   0  0  0  0  0  0  0  0  0  0  0  0
  -14.6829    1.7925    0.0000 C   0  0  0  0  0  0  0  0  0  0  0  0
  -14.6829    2.6175    0.0000 C   0  0  0  0  0  0  0  0  0  0  0  0
  -15.3974    3.0300    0.0000 C   0  0  0  0  0  0  0  0  0  0  0  0
  -15.3974    3.8550    0.0000 C   0  0  0  0  0  0  0  0  0  0  0  0
  -16.1118    4.2675    0.0000 C   0  0  0  0  0  0  0  0  0  0  0  0
  -16.1118    5.0925    0.0000 C   0  0  0  0  0  0  0  0  0  0  0  0
  -16.8263    5.5050    0.0000 C   0  0  0  0  0  0  0  0  0  0  0  0
   -8.9671   -5.6325    0.0000 O   0  0  0  0  0  0  0  0  0  0  0  0
   -8.9671   -4.8075    0.0000 C   0  0  0  0  0  0  0  0  0  0  0  0
   -8.2527   -4.3950    0.0000 C   0  0  0  0  0  0  0  0  0  0  0  0
   -8.2527   -3.5700    0.0000 C   0  0  0  0  0  0  0  0  0  0  0  0
   -7.5382   -3.1575    0.0000 C   0  0  0  0  0  0  0  0  0  0  0  0
   -7.5382   -2.3325    0.0000 C   0  0  0  0  0  0  0  0  0  0  0  0
   -6.8237   -1.9200    0.0000 C   0  0  0  0  0  0  0  0  0  0  0  0
   -6.8237   -1.0950    0.0000 C   0  0  0  0  0  0  0  0  0  0  0  0
   -6.1092   -0.6825    0.0000 C   0  0  0  0  0  0  0  0  0  0  0  0
   -6.1092    0.1425    0.0000 C   0  0  0  0  0  0  0  0  0  0  0  0
   -5.3948    0.5550    0.0000 C   0  0  0  0  0  0  0  0  0  0  0  0
   -5.3948    1.3800    0.0000 C   0  0  0  0  0  0  0  0  0  0  0  0
   -4.6803    1.7925    0.0000 C   0  0  0  0  0  0  0  0  0  0  0  0
   -4.6803    2.6175    0.0000 C   0  0  0  0  0  0  0  0  0  0  0  0
   -3.9658    3.0300    0.0000 C   0  0  0  0  0  0  0  0  0  0  0  0
   -3.9658    3.8550    0.0000 C   0  0  0  0  0  0  0  0  0  0  0  0
   -3.2514    4.2675    0.0000 C   0  0  0  0  0  0  0  0  0  0  0  0
   -3.2514    5.0925    0.0000 C   0  0  0  0  0  0  0  0  0  0  0  0
   -2.5369    5.5050    0.0000 C   0  0  0  0  0  0  0  0  0  0  0  0
  1  2  1  0  0  0  0
  2  3  1  0  0  0  0
  3  4  1  0  0  0  0
  4  5  1  0  0  0  0
  5  6  1  0  0  0  0
  6  7  1  0  0  0  0
  7  8  1  0  0  0  0
  8  9  1  0  0  0  0
  9 10  1  0  0  0  0
 10 11  1  0  0  0  0
 11 12  1  0  0  0  0
 12 13  1  0  0  0  0
 13 14  1  0  0  0  0
 14 15  1  0  0  0  0
 15 16  1  0  0  0  0
 16 17  1  0  0  0  0
 17 18  1  0  0  0  0
 18 19  1  0  0  0  0
 19 20  1  0  0  0  0
 20 21  1  0  0  0  0
 21 22  1  0  0  0  0
 22 23  1  0  0  0  0
 23 24  1  0  0  0  0
 24 25  1  0  0  0  0
 25 26  1  0  0  0  0
 26 27  1  0  0  0  0
 27 28  1  0  0  0  0
 28 29  1  0  0  0  0
 29 30  1  0  0  0  0
 30 31  1  0  0  0  0
 31 32  1  0  0  0  0
 32 33  1  0  0  0  0
 33 34  1  0  0  0  0
 34 35  1  0  0  0  0
 35 36  1  0  0  0  0
 36 37  1  0  0  0  0
 37 38  1  0  0  0  0
 38 39  1  0  0  0  0
 20 40  1  0  0  0  0
 40 41  1  0  0  0  0
 41 42  1  0  0  0  0
 42 43  1  0  0  0  0
 43 44  1  0  0  0  0
 44 45  1  0  0  0  0
 45 46  1  0  0  0  0
 46 47  1  0  0  0  0
 47 48  1  0  0  0  0
 48 49  1  0  0  0  0
 49 50  1  0  0  0  0
 50 51  1  0  0  0  0
 51 52  1  0  0  0  0
 52 53  1  0  0  0  0
 53 54  1  0  0  0  0
 54 55  1  0  0  0  0
 55 56  1  0  0  0  0
 56 57  1  0  0  0  0
 57 58  1  0  0  0  0
M  END
> <ChemID>
201632

> <CAS>
2082-80-6

> <Original_SMILES>
CCCCCCCCCCCCCCCCCCOP(OCCCCCCCCCCCCCCCCCC)OCCCCCCCCCCCCCCCCCC

> <preferred_name>


> <dsstox_substance_id>


> <dsstox_compound_id>


> <qc_level>


> <Canonical_QSARr>
CCCCCCCCCCCCCCCCCCOP(OCCCCCCCCCCCCCCCCCC)OCCCCCCCCCCCCCCCCCC

> <InChI_Code_QSARr>
InChI=1S/C54H111O3P/c1-4-7-10-13-16-19-22-25-28-31-34-37-40-43-46-49-52-55-58(56-53-50-47-44-41-38-35-32-29-26-23-20-17-14-11-8-5-2)57-54-51-48-45-42-39-36-33-30-27-24-21-18-15-12-9-6-3/h4-54H2,1-3H3

> <InChI Key_QSARr>
CNUJLMSKURPSHE-UHFFFAOYSA-N

> <Salt_Solvent>


> <Salt_Solvent_ID>
0

> <MPID>
101387

> <Tr_1_Tst_0>
1

> <Ready_Biodeg>
1.0

$$$$
Row1353
  Mrv171c012251911052D          

 22 22  0  0  0  0            999 V2000
   -9.4473   -0.4038    0.0000 C   0  0  0  0  0  0  0  0  0  0  0  0
   -8.7328    0.0087    0.0000 C   0  0  0  0  0  0  0  0  0  0  0  0
   -8.0183   -0.4038    0.0000 C   0  0  0  0  0  0  0  0  0  0  0  0
   -7.3039    0.0087    0.0000 C   0  0  0  0  0  0  0  0  0  0  0  0
   -6.5894   -0.4038    0.0000 C   0  0  0  0  0  0  0  0  0  0  0  0
   -5.8749    0.0087    0.0000 C   0  0  0  0  0  0  0  0  0  0  0  0
   -5.1604   -0.4038    0.0000 C   0  0  0  0  0  0  0  0  0  0  0  0
   -4.4460    0.0087    0.0000 C   0  0  0  0  0  0  0  0  0  0  0  0
   -3.7315   -0.4038    0.0000 C   0  0  0  0  0  0  0  0  0  0  0  0
   -3.0170    0.0087    0.0000 C   0  0  0  0  0  0  0  0  0  0  0  0
   -2.3026   -0.4038    0.0000 C   0  0  0  0  0  0  0  0  0  0  0  0
   -1.5881    0.0087    0.0000 C   0  0  0  0  0  0  0  0  0  0  0  0
   -0.8736   -0.4038    0.0000 C   0  0  0  0  0  0  0  0  0  0  0  0
   -0.1591    0.0087    0.0000 C   0  0  0  0  0  0  0  0  0  0  0  0
    0.5553   -0.4038    0.0000 C   0  0  0  0  0  0  0  0  0  0  0  0
    1.2698    0.0087    0.0000 C   0  0  0  0  0  0  0  0  0  0  0  0
    1.9843   -0.4038    0.0000 C   0  0  0  0  0  0  0  0  0  0  0  0
    2.6987    0.0087    0.0000 C   0  0  0  0  0  0  0  0  0  0  0  0
    2.6987    0.8337    0.0000 C   0  0  0  0  0  0  0  0  0  0  0  0
    1.9843    1.2462    0.0000 C   0  0  0  0  0  0  0  0  0  0  0  0
    1.9843    2.0712    0.0000 O   0  0  0  0  0  0  0  0  0  0  0  0
    1.2698    0.8337    0.0000 C   0  0  0  0  0  0  0  0  0  0  0  0
  1  2  1  0  0  0  0
  2  3  1  0  0  0  0
  3  4  1  0  0  0  0
  4  5  1  0  0  0  0
  5  6  1  0  0  0  0
  6  7  1  0  0  0  0
  7  8  1  0  0  0  0
  8  9  1  0  0  0  0
  9 10  1  0  0  0  0
 10 11  1  0  0  0  0
 11 12  1  0  0  0  0
 12 13  1  0  0  0  0
 13 14  1  0  0  0  0
 14 15  1  0  0  0  0
 15 16  1  0  0  0  0
 17 16  2  0  0  0  0
 18 17  1  0  0  0  0
 19 18  2  0  0  0  0
 20 19  1  0  0  0  0
 20 21  1  0  0  0  0
 22 20  2  0  0  0  0
 16 22  1  0  0  0  0
M  END
> <ChemID>
201635

> <CAS>
501-24-6

> <Original_SMILES>
CCCCCCCCCCCCCCCc1cccc(O)c1

> <preferred_name>
Phenol, 3-pentadecyl-

> <dsstox_substance_id>
DTXSID9060108

> <dsstox_compound_id>
DTXCID8040777

> <qc_level>


> <Canonical_QSARr>
CCCCCCCCCCCCCCCC1C=C(O)C=CC=1

> <InChI_Code_QSARr>
InChI=1S/C21H36O/c1-2-3-4-5-6-7-8-9-10-11-12-13-14-16-20-17-15-18-21(22)19-20/h15,17-19,22H,2-14,16H2,1H3

> <InChI Key_QSARr>
PTFIPECGHSYQNR-UHFFFAOYSA-N

> <Salt_Solvent>


> <Salt_Solvent_ID>
0

> <MPID>
101388

> <Tr_1_Tst_0>
0

> <Ready_Biodeg>
1.0

$$$$
Row1354
  Mrv171c012251911052D          

 38 38  0  0  0  0            999 V2000
  -11.0804    5.8748    0.0000 C   0  0  0  0  0  0  0  0  0  0  0  0
  -11.0804    5.0498    0.0000 C   0  0  0  0  0  0  0  0  0  0  0  0
  -10.3659    4.6373    0.0000 C   0  0  0  0  0  0  0  0  0  0  0  0
  -10.3659    3.8123    0.0000 C   0  0  0  0  0  0  0  0  0  0  0  0
   -9.6514    3.3998    0.0000 C   0  0  0  0  0  0  0  0  0  0  0  0
   -9.6514    2.5748    0.0000 C   0  0  0  0  0  0  0  0  0  0  0  0
   -8.9370    2.1623    0.0000 C   0  0  0  0  0  0  0  0  0  0  0  0
   -8.9370    1.3373    0.0000 C   0  0  0  0  0  0  0  0  0  0  0  0
   -8.2225    0.9248    0.0000 C   0  0  0  0  0  0  0  0  0  0  0  0
   -8.2225    0.0998    0.0000 C   0  0  0  0  0  0  0  0  0  0  0  0
   -7.5080   -0.3127    0.0000 C   0  0  0  0  0  0  0  0  0  0  0  0
   -7.5080   -1.1377    0.0000 C   0  0  0  0  0  0  0  0  0  0  0  0
   -6.7935   -1.5502    0.0000 C   0  0  0  0  0  0  0  0  0  0  0  0
   -6.7935   -2.3752    0.0000 O   0  0  0  0  0  0  0  0  0  0  0  0
   -6.0791   -2.7877    0.0000 C   0  0  0  0  0  0  0  0  0  0  0  0
   -5.3646   -2.3752    0.0000 O   0  0  0  0  0  0  0  0  0  0  0  0
   -6.0791   -3.6127    0.0000 C   0  0  0  0  0  0  0  0  0  0  0  0
   -6.7935   -4.0252    0.0000 C   0  0  0  0  0  0  0  0  0  0  0  0
   -6.7935   -4.8502    0.0000 C   0  0  0  0  0  0  0  0  0  0  0  0
   -6.0791   -5.2627    0.0000 C   0  0  0  0  0  0  0  0  0  0  0  0
   -5.3646   -4.8502    0.0000 C   0  0  0  0  0  0  0  0  0  0  0  0
   -5.3646   -4.0252    0.0000 C   0  0  0  0  0  0  0  0  0  0  0  0
   -4.6501   -3.6127    0.0000 C   0  0  0  0  0  0  0  0  0  0  0  0
   -4.6501   -2.7877    0.0000 O   0  0  0  0  0  0  0  0  0  0  0  0
   -3.9357   -4.0252    0.0000 O   0  0  0  0  0  0  0  0  0  0  0  0
   -3.2212   -3.6127    0.0000 C   0  0  0  0  0  0  0  0  0  0  0  0
   -2.5067   -4.0252    0.0000 C   0  0  0  0  0  0  0  0  0  0  0  0
   -1.7922   -3.6127    0.0000 C   0  0  0  0  0  0  0  0  0  0  0  0
   -1.0778   -4.0252    0.0000 C   0  0  0  0  0  0  0  0  0  0  0  0
   -0.3633   -3.6127    0.0000 C   0  0  0  0  0  0  0  0  0  0  0  0
    0.3512   -4.0252    0.0000 C   0  0  0  0  0  0  0  0  0  0  0  0
    1.0656   -3.6127    0.0000 C   0  0  0  0  0  0  0  0  0  0  0  0
    1.7801   -4.0252    0.0000 C   0  0  0  0  0  0  0  0  0  0  0  0
    2.4946   -3.6127    0.0000 C   0  0  0  0  0  0  0  0  0  0  0  0
    3.2091   -4.0252    0.0000 C   0  0  0  0  0  0  0  0  0  0  0  0
    3.9235   -3.6127    0.0000 C   0  0  0  0  0  0  0  0  0  0  0  0
    4.6380   -4.0252    0.0000 C   0  0  0  0  0  0  0  0  0  0  0  0
    5.3525   -3.6127    0.0000 C   0  0  0  0  0  0  0  0  0  0  0  0
  1  2  1  0  0  0  0
  2  3  1  0  0  0  0
  3  4  1  0  0  0  0
  4  5  1  0  0  0  0
  5  6  1  0  0  0  0
  6  7  1  0  0  0  0
  7  8  1  0  0  0  0
  8  9  1  0  0  0  0
  9 10  1  0  0  0  0
 10 11  1  0  0  0  0
 11 12  1  0  0  0  0
 12 13  1  0  0  0  0
 13 14  1  0  0  0  0
 14 15  1  0  0  0  0
 15 16  2  0  0  0  0
 15 17  1  0  0  0  0
 18 17  2  0  0  0  0
 19 18  1  0  0  0  0
 20 19  2  0  0  0  0
 21 20  1  0  0  0  0
 22 21  2  0  0  0  0
 17 22  1  0  0  0  0
 22 23  1  0  0  0  0
 23 24  2  0  0  0  0
 23 25  1  0  0  0  0
 25 26  1  0  0  0  0
 26 27  1  0  0  0  0
 27 28  1  0  0  0  0
 28 29  1  0  0  0  0
 29 30  1  0  0  0  0
 30 31  1  0  0  0  0
 31 32  1  0  0  0  0
 32 33  1  0  0  0  0
 33 34  1  0  0  0  0
 34 35  1  0  0  0  0
 35 36  1  0  0  0  0
 36 37  1  0  0  0  0
 37 38  1  0  0  0  0
M  END
> <ChemID>
201637

> <CAS>
119-06-2

> <Original_SMILES>
CCCCCCCCCCCCCOC(=O)c1ccccc1C(=O)OCCCCCCCCCCCCC

> <preferred_name>
Ditridecyl phthalate

> <dsstox_substance_id>
DTXSID2025214

> <dsstox_compound_id>
DTXCID805214

> <qc_level>


> <Canonical_QSARr>
CCCCCCCCCCCCCOC(=O)C1=CC=CC=C1C(=O)OCCCCCCCCCCCCC

> <InChI_Code_QSARr>
InChI=1S/C34H58O4/c1-3-5-7-9-11-13-15-17-19-21-25-29-37-33(35)31-27-23-24-28-32(31)34(36)38-30-26-22-20-18-16-14-12-10-8-6-4-2/h23-24,27-28H,3-22,25-26,29-30H2,1-2H3

> <InChI Key_QSARr>
YCZJVRCZIPDYHH-UHFFFAOYSA-N

> <Salt_Solvent>


> <Salt_Solvent_ID>
0

> <MPID>
101389

> <Tr_1_Tst_0>
1

> <Ready_Biodeg>
0.0

$$$$
Row1355
  Mrv171c012251911052D          

 13 12  0  0  0  0            999 V2000
   -3.4618    0.1904    0.0000 C   0  0  0  0  0  0  0  0  0  0  0  0
   -2.7473   -0.2221    0.0000 C   0  0  0  0  0  0  0  0  0  0  0  0
   -2.0329    0.1904    0.0000 C   0  0  0  0  0  0  0  0  0  0  0  0
   -1.3184   -0.2221    0.0000 C   0  0  0  0  0  0  0  0  0  0  0  0
   -0.6039    0.1904    0.0000 C   0  0  0  0  0  0  0  0  0  0  0  0
    0.1105   -0.2221    0.0000 C   0  0  0  0  0  0  0  0  0  0  0  0
    0.8250    0.1904    0.0000 C   0  0  0  0  0  0  0  0  0  0  0  0
    1.5395   -0.2221    0.0000 C   0  0  0  0  0  0  0  0  0  0  0  0
    2.2540    0.1904    0.0000 C   0  0  0  0  0  0  0  0  0  0  0  0
    2.9684   -0.2221    0.0000 C   0  0  0  0  0  0  0  0  0  0  0  0
    3.6829    0.1904    0.0000 C   0  0  0  0  0  0  0  0  0  0  0  0
    4.3974   -0.2221    0.0000 C   0  0  0  0  0  0  0  0  0  0  0  0
    5.1118    0.1904    0.0000 Cl  0  0  0  0  0  0  0  0  0  0  0  0
  1  2  1  0  0  0  0
  2  3  1  0  0  0  0
  3  4  1  0  0  0  0
  4  5  1  0  0  0  0
  5  6  1  0  0  0  0
  6  7  1  0  0  0  0
  7  8  1  0  0  0  0
  8  9  1  0  0  0  0
  9 10  1  0  0  0  0
 10 11  1  0  0  0  0
 11 12  1  0  0  0  0
 12 13  1  0  0  0  0
M  END
> <ChemID>
201639

> <CAS>
112-52-7

> <Original_SMILES>
CCCCCCCCCCCCCl

> <preferred_name>
1-Chlorododecane

> <dsstox_substance_id>
DTXSID0025492

> <dsstox_compound_id>
DTXCID805492

> <qc_level>


> <Canonical_QSARr>
CCCCCCCCCCCCCl

> <InChI_Code_QSARr>
InChI=1S/C12H25Cl/c1-2-3-4-5-6-7-8-9-10-11-12-13/h2-12H2,1H3

> <InChI Key_QSARr>
YAYNEUUHHLGGAH-UHFFFAOYSA-N

> <Salt_Solvent>


> <Salt_Solvent_ID>
0

> <MPID>
101390

> <Tr_1_Tst_0>
0

> <Ready_Biodeg>
1.0

$$$$
Row1356
  Mrv171c012251911052D          

 77 76  0  0  0  0            999 V2000
   -3.2596   -9.7231    0.0000 C   0  0  0  0  0  0  0  0  0  0  0  0
   -3.6721   -9.0086    0.0000 C   0  0  0  0  0  0  0  0  0  0  0  0
   -3.2596   -8.2942    0.0000 C   0  0  0  0  0  0  0  0  0  0  0  0
   -3.6721   -7.5797    0.0000 C   0  0  0  0  0  0  0  0  0  0  0  0
   -3.2596   -6.8652    0.0000 C   0  0  0  0  0  0  0  0  0  0  0  0
   -3.6721   -6.1508    0.0000 C   0  0  0  0  0  0  0  0  0  0  0  0
   -3.2596   -5.4363    0.0000 C   0  0  0  0  0  0  0  0  0  0  0  0
   -3.6721   -4.7218    0.0000 C   0  0  0  0  0  0  0  0  0  0  0  0
   -3.2596   -4.0073    0.0000 C   0  0  0  0  0  0  0  0  0  0  0  0
   -3.6721   -3.2929    0.0000 C   0  0  0  0  0  0  0  0  0  0  0  0
   -3.2596   -2.5784    0.0000 C   0  0  0  0  0  0  0  0  0  0  0  0
   -3.6721   -1.8639    0.0000 C   0  0  0  0  0  0  0  0  0  0  0  0
   -3.2596   -1.1495    0.0000 S   0  0  0  0  0  0  0  0  0  0  0  0
   -3.6721   -0.4350    0.0000 C   0  0  0  0  0  0  0  0  0  0  0  0
   -3.2596    0.2795    0.0000 C   0  0  0  0  0  0  0  0  0  0  0  0
   -3.6721    0.9939    0.0000 C   0  0  0  0  0  0  0  0  0  0  0  0
   -4.4971    0.9939    0.0000 O   0  0  0  0  0  0  0  0  0  0  0  0
   -3.2596    1.7084    0.0000 O   0  0  0  0  0  0  0  0  0  0  0  0
   -3.6721    2.4229    0.0000 C   0  0  0  0  0  0  0  0  0  0  0  0
   -3.2596    3.1374    0.0000 C   0  0  0  0  0  0  0  0  0  0  0  0
   -2.8471    3.8518    0.0000 C   0  0  0  0  0  0  0  0  0  0  0  0
   -2.0221    3.8518    0.0000 O   0  0  0  0  0  0  0  0  0  0  0  0
   -1.6096    3.1374    0.0000 C   0  0  0  0  0  0  0  0  0  0  0  0
   -2.0221    2.4229    0.0000 O   0  0  0  0  0  0  0  0  0  0  0  0
   -0.7846    3.1374    0.0000 C   0  0  0  0  0  0  0  0  0  0  0  0
   -0.3721    2.4229    0.0000 C   0  0  0  0  0  0  0  0  0  0  0  0
    0.4529    2.4229    0.0000 S   0  0  0  0  0  0  0  0  0  0  0  0
    0.8654    1.7084    0.0000 C   0  0  0  0  0  0  0  0  0  0  0  0
    1.6904    1.7084    0.0000 C   0  0  0  0  0  0  0  0  0  0  0  0
    2.1029    0.9939    0.0000 C   0  0  0  0  0  0  0  0  0  0  0  0
    2.9279    0.9939    0.0000 C   0  0  0  0  0  0  0  0  0  0  0  0
    3.3404    0.2795    0.0000 C   0  0  0  0  0  0  0  0  0  0  0  0
    4.1654    0.2795    0.0000 C   0  0  0  0  0  0  0  0  0  0  0  0
    4.5779   -0.4350    0.0000 C   0  0  0  0  0  0  0  0  0  0  0  0
    5.4029   -0.4350    0.0000 C   0  0  0  0  0  0  0  0  0  0  0  0
    5.8154   -1.1495    0.0000 C   0  0  0  0  0  0  0  0  0  0  0  0
    6.6404   -1.1495    0.0000 C   0  0  0  0  0  0  0  0  0  0  0  0
    7.0529   -1.8639    0.0000 C   0  0  0  0  0  0  0  0  0  0  0  0
    7.8779   -1.8639    0.0000 C   0  0  0  0  0  0  0  0  0  0  0  0
   -2.5451    2.7249    0.0000 C   0  0  0  0  0  0  0  0  0  0  0  0
   -2.5451    1.8999    0.0000 O   0  0  0  0  0  0  0  0  0  0  0  0
   -1.8307    1.4874    0.0000 C   0  0  0  0  0  0  0  0  0  0  0  0
   -1.1162    1.8999    0.0000 O   0  0  0  0  0  0  0  0  0  0  0  0
   -1.8307    0.6624    0.0000 C   0  0  0  0  0  0  0  0  0  0  0  0
   -1.1162    0.2499    0.0000 C   0  0  0  0  0  0  0  0  0  0  0  0
   -1.1162   -0.5751    0.0000 S   0  0  0  0  0  0  0  0  0  0  0  0
   -0.4017   -0.9876    0.0000 C   0  0  0  0  0  0  0  0  0  0  0  0
   -0.4017   -1.8126    0.0000 C   0  0  0  0  0  0  0  0  0  0  0  0
    0.3127   -2.2251    0.0000 C   0  0  0  0  0  0  0  0  0  0  0  0
    0.3127   -3.0501    0.0000 C   0  0  0  0  0  0  0  0  0  0  0  0
    1.0272   -3.4626    0.0000 C   0  0  0  0  0  0  0  0  0  0  0  0
    1.0272   -4.2876    0.0000 C   0  0  0  0  0  0  0  0  0  0  0  0
    1.7417   -4.7001    0.0000 C   0  0  0  0  0  0  0  0  0  0  0  0
    1.7417   -5.5251    0.0000 C   0  0  0  0  0  0  0  0  0  0  0  0
    2.4561   -5.9376    0.0000 C   0  0  0  0  0  0  0  0  0  0  0  0
    2.4561   -6.7626    0.0000 C   0  0  0  0  0  0  0  0  0  0  0  0
    3.1706   -7.1751    0.0000 C   0  0  0  0  0  0  0  0  0  0  0  0
    3.1706   -8.0001    0.0000 C   0  0  0  0  0  0  0  0  0  0  0  0
   -3.9741    3.5499    0.0000 C   0  0  0  0  0  0  0  0  0  0  0  0
   -3.9741    4.3749    0.0000 O   0  0  0  0  0  0  0  0  0  0  0  0
   -3.2596    4.7874    0.0000 C   0  0  0  0  0  0  0  0  0  0  0  0
   -3.2596    5.6124    0.0000 O   0  0  0  0  0  0  0  0  0  0  0  0
   -2.5451    4.3749    0.0000 C   0  0  0  0  0  0  0  0  0  0  0  0
   -1.8307    4.7874    0.0000 C   0  0  0  0  0  0  0  0  0  0  0  0
   -1.1162    4.3749    0.0000 S   0  0  0  0  0  0  0  0  0  0  0  0
   -0.4017    4.7874    0.0000 C   0  0  0  0  0  0  0  0  0  0  0  0
    0.3127    4.3749    0.0000 C   0  0  0  0  0  0  0  0  0  0  0  0
    1.0272    4.7874    0.0000 C   0  0  0  0  0  0  0  0  0  0  0  0
    1.7417    4.3749    0.0000 C   0  0  0  0  0  0  0  0  0  0  0  0
    2.4561    4.7874    0.0000 C   0  0  0  0  0  0  0  0  0  0  0  0
    3.1706    4.3749    0.0000 C   0  0  0  0  0  0  0  0  0  0  0  0
    3.8851    4.7874    0.0000 C   0  0  0  0  0  0  0  0  0  0  0  0
    4.5996    4.3749    0.0000 C   0  0  0  0  0  0  0  0  0  0  0  0
    5.3140    4.7874    0.0000 C   0  0  0  0  0  0  0  0  0  0  0  0
    6.0285    4.3749    0.0000 C   0  0  0  0  0  0  0  0  0  0  0  0
    6.7430    4.7874    0.0000 C   0  0  0  0  0  0  0  0  0  0  0  0
    7.4574    4.3749    0.0000 C   0  0  0  0  0  0  0  0  0  0  0  0
  1  2  1  0  0  0  0
  2  3  1  0  0  0  0
  3  4  1  0  0  0  0
  4  5  1  0  0  0  0
  5  6  1  0  0  0  0
  6  7  1  0  0  0  0
  7  8  1  0  0  0  0
  8  9  1  0  0  0  0
  9 10  1  0  0  0  0
 10 11  1  0  0  0  0
 11 12  1  0  0  0  0
 12 13  1  0  0  0  0
 13 14  1  0  0  0  0
 14 15  1  0  0  0  0
 15 16  1  0  0  0  0
 16 17  2  0  0  0  0
 16 18  1  0  0  0  0
 18 19  1  0  0  0  0
 19 20  1  0  0  0  0
 20 21  1  0  0  0  0
 21 22  1  0  0  0  0
 22 23  1  0  0  0  0
 23 24  2  0  0  0  0
 23 25  1  0  0  0  0
 25 26  1  0  0  0  0
 26 27  1  0  0  0  0
 27 28  1  0  0  0  0
 28 29  1  0  0  0  0
 29 30  1  0  0  0  0
 30 31  1  0  0  0  0
 31 32  1  0  0  0  0
 32 33  1  0  0  0  0
 33 34  1  0  0  0  0
 34 35  1  0  0  0  0
 35 36  1  0  0  0  0
 36 37  1  0  0  0  0
 37 38  1  0  0  0  0
 38 39  1  0  0  0  0
 20 40  1  0  0  0  0
 40 41  1  0  0  0  0
 41 42  1  0  0  0  0
 42 43  2  0  0  0  0
 42 44  1  0  0  0  0
 44 45  1  0  0  0  0
 45 46  1  0  0  0  0
 46 47  1  0  0  0  0
 47 48  1  0  0  0  0
 48 49  1  0  0  0  0
 49 50  1  0  0  0  0
 50 51  1  0  0  0  0
 51 52  1  0  0  0  0
 52 53  1  0  0  0  0
 53 54  1  0  0  0  0
 54 55  1  0  0  0  0
 55 56  1  0  0  0  0
 56 57  1  0  0  0  0
 57 58  1  0  0  0  0
 20 59  1  0  0  0  0
 59 60  1  0  0  0  0
 60 61  1  0  0  0  0
 61 62  2  0  0  0  0
 61 63  1  0  0  0  0
 63 64  1  0  0  0  0
 64 65  1  0  0  0  0
 65 66  1  0  0  0  0
 66 67  1  0  0  0  0
 67 68  1  0  0  0  0
 68 69  1  0  0  0  0
 69 70  1  0  0  0  0
 70 71  1  0  0  0  0
 71 72  1  0  0  0  0
 72 73  1  0  0  0  0
 73 74  1  0  0  0  0
 74 75  1  0  0  0  0
 75 76  1  0  0  0  0
 76 77  1  0  0  0  0
M  END
> <ChemID>
201642

> <CAS>
29598-76-3

> <Original_SMILES>
CCCCCCCCCCCCSCCC(=O)OCC(COC(=O)CCSCCCCCCCCCCCC)(COC(=O)CCSCCCCCCCCCCCC)COC(=O)CCSCCCCCCCCCCCC

> <preferred_name>
Propanoic acid, 3-(dodecylthio)-, 2,2-bis[[3-(dodecylthio)-1-oxopropoxy]methyl]-1,3-propanediyl ester

> <dsstox_substance_id>
DTXSID3027956

> <dsstox_compound_id>
DTXCID407956

> <qc_level>


> <Canonical_QSARr>
CCCCCCCCCCCCSCCC(=O)OCC(COC(=O)CCSCCCCCCCCCCCC)(COC(=O)CCSCCCCCCCCCCCC)COC(=O)CCSCCCCCCCCCCCC

> <InChI_Code_QSARr>
InChI=1S/C65H124O8S4/c1-5-9-13-17-21-25-29-33-37-41-49-74-53-45-61(66)70-57-65(58-71-62(67)46-54-75-50-42-38-34-30-26-22-18-14-10-6-2,59-72-63(68)47-55-76-51-43-39-35-31-27-23-19-15-11-7-3)60-73-64(69)48-56-77-52-44-40-36-32-28-24-20-16-12-8-4/h5-60H2,1-4H3

> <InChI Key_QSARr>
VSVVZZQIUJXYQA-UHFFFAOYSA-N

> <Salt_Solvent>


> <Salt_Solvent_ID>
0

> <MPID>
101391

> <Tr_1_Tst_0>
1

> <Ready_Biodeg>
0.0

$$$$
Row1357
  Mrv171c012251911052D          

 19 18  0  0  0  0            999 V2000
   -1.7364    0.5428    0.0000 O   0  0  0  0  0  0  0  0  0  0  0  0
   -1.0219    0.1303    0.0000 C   0  0  0  0  0  0  0  0  0  0  0  0
   -0.3074    0.5428    0.0000 C   0  0  0  0  0  0  0  0  0  0  0  0
    0.4070    0.1303    0.0000 N   0  3  0  0  0  0  0  0  0  0  0  0
   -0.0055   -0.5842    0.0000 C   0  0  0  0  0  0  0  0  0  0  0  0
    0.8195    0.8448    0.0000 C   0  0  0  0  0  0  0  0  0  0  0  0
    1.1215   -0.2822    0.0000 C   0  0  0  0  0  0  0  0  0  0  0  0
    1.8360    0.1303    0.0000 C   0  0  0  0  0  0  0  0  0  0  0  0
    2.5504   -0.2822    0.0000 C   0  0  0  0  0  0  0  0  0  0  0  0
    3.2649    0.1303    0.0000 C   0  0  0  0  0  0  0  0  0  0  0  0
    3.9794   -0.2822    0.0000 C   0  0  0  0  0  0  0  0  0  0  0  0
    4.6939    0.1303    0.0000 C   0  0  0  0  0  0  0  0  0  0  0  0
    5.4083   -0.2822    0.0000 C   0  0  0  0  0  0  0  0  0  0  0  0
    6.1228    0.1303    0.0000 C   0  0  0  0  0  0  0  0  0  0  0  0
    6.8373   -0.2822    0.0000 C   0  0  0  0  0  0  0  0  0  0  0  0
    7.5517    0.1303    0.0000 C   0  0  0  0  0  0  0  0  0  0  0  0
    8.2662   -0.2822    0.0000 C   0  0  0  0  0  0  0  0  0  0  0  0
    8.9807    0.1303    0.0000 C   0  0  0  0  0  0  0  0  0  0  0  0
   -1.0219   -0.6947    0.0000 O   0  0  0  0  0  0  0  0  0  0  0  0
  1  2  1  0  0  0  0
  2  3  1  0  0  0  0
  3  4  1  0  0  0  0
  4  5  1  0  0  0  0
  4  6  1  0  0  0  0
  4  7  1  0  0  0  0
  7  8  1  0  0  0  0
  8  9  1  0  0  0  0
  9 10  1  0  0  0  0
 10 11  1  0  0  0  0
 11 12  1  0  0  0  0
 12 13  1  0  0  0  0
 13 14  1  0  0  0  0
 14 15  1  0  0  0  0
 15 16  1  0  0  0  0
 16 17  1  0  0  0  0
 17 18  1  0  0  0  0
  2 19  2  0  0  0  0
M  CHG  1   4   1
M  END
> <ChemID>
201644

> <CAS>
683-10-3

> <Original_SMILES>
CCCCCCCCCCCC[N+](C)(C)CC(O)=O

> <preferred_name>
1-Dodecanaminium, N-(carboxymethyl)-N,N-dimethyl-, inner salt

> <dsstox_substance_id>
DTXSID6041266

> <dsstox_compound_id>
DTXCID4021266

> <qc_level>


> <Canonical_QSARr>
CCCCCCCCCCCC[N+](C)(C)CC(O)=O

> <InChI_Code_QSARr>
InChI=1S/C16H33NO2/c1-4-5-6-7-8-9-10-11-12-13-14-17(2,3)15-16(18)19/h4-15H2,1-3H3/p+1

> <InChI Key_QSARr>
DVEKCXOJTLDBFE-UHFFFAOYSA-O

> <Salt_Solvent>


> <Salt_Solvent_ID>
0

> <MPID>
101392

> <Tr_1_Tst_0>
1

> <Ready_Biodeg>
1.0

$$$$
Row1358
  Mrv171c012251911052D          

 19 19  0  0  0  0            999 V2000
   -7.6522    0.0101    0.0000 C   0  0  0  0  0  0  0  0  0  0  0  0
   -6.9378   -0.4024    0.0000 C   0  0  0  0  0  0  0  0  0  0  0  0
   -6.2233    0.0101    0.0000 C   0  0  0  0  0  0  0  0  0  0  0  0
   -5.5088   -0.4024    0.0000 C   0  0  0  0  0  0  0  0  0  0  0  0
   -4.7944    0.0101    0.0000 C   0  0  0  0  0  0  0  0  0  0  0  0
   -4.0799   -0.4024    0.0000 C   0  0  0  0  0  0  0  0  0  0  0  0
   -3.3654    0.0101    0.0000 C   0  0  0  0  0  0  0  0  0  0  0  0
   -2.6510   -0.4024    0.0000 C   0  0  0  0  0  0  0  0  0  0  0  0
   -1.9365    0.0101    0.0000 C   0  0  0  0  0  0  0  0  0  0  0  0
   -1.2220   -0.4024    0.0000 C   0  0  0  0  0  0  0  0  0  0  0  0
   -0.5075    0.0101    0.0000 C   0  0  0  0  0  0  0  0  0  0  0  0
    0.2069   -0.4024    0.0000 C   0  0  0  0  0  0  0  0  0  0  0  0
    0.9214    0.0101    0.0000 C   0  0  0  0  0  0  0  0  0  0  0  0
    1.6359   -0.4024    0.0000 C   0  0  0  0  0  0  0  0  0  0  0  0
    2.3503    0.0101    0.0000 C   0  0  0  0  0  0  0  0  0  0  0  0
    2.3503    0.8351    0.0000 C   0  0  0  0  0  0  0  0  0  0  0  0
    1.6359    1.2476    0.0000 C   0  0  0  0  0  0  0  0  0  0  0  0
    0.9214    0.8351    0.0000 C   0  0  0  0  0  0  0  0  0  0  0  0
    0.2069    1.2476    0.0000 O   0  0  0  0  0  0  0  0  0  0  0  0
  1  2  1  0  0  0  0
  2  3  1  0  0  0  0
  3  4  1  0  0  0  0
  4  5  1  0  0  0  0
  5  6  1  0  0  0  0
  6  7  1  0  0  0  0
  7  8  1  0  0  0  0
  8  9  1  0  0  0  0
  9 10  1  0  0  0  0
 10 11  1  0  0  0  0
 11 12  1  0  0  0  0
 12 13  1  0  0  0  0
 14 13  2  0  0  0  0
 15 14  1  0  0  0  0
 16 15  2  0  0  0  0
 17 16  1  0  0  0  0
 18 17  2  0  0  0  0
 13 18  1  0  0  0  0
 18 19  1  0  0  0  0
M  END
> <ChemID>
201645

> <CAS>
5284-29-7

> <Original_SMILES>
CCCCCCCCCCCCc1ccccc1O

> <preferred_name>


> <dsstox_substance_id>
DTXSID00274042

> <dsstox_compound_id>
DTXCID507926

> <qc_level>


> <Canonical_QSARr>
CCCCCCCCCCCCC1=CC=CC=C1O

> <InChI_Code_QSARr>
InChI=1S/C18H30O/c1-2-3-4-5-6-7-8-9-10-11-14-17-15-12-13-16-18(17)19/h12-13,15-16,19H,2-11,14H2,1H3

> <InChI Key_QSARr>
CYEJMVLDXAUOPN-UHFFFAOYSA-N

> <Salt_Solvent>


> <Salt_Solvent_ID>
0

> <MPID>
101393

> <Tr_1_Tst_0>
1

> <Ready_Biodeg>
0.0

$$$$
Row1359
  Mrv171c012251911052D          

 22 21  0  0  0  0            999 V2000
  -11.8332   -0.5635    0.0000 C   0  0  0  0  0  0  0  0  0  0  0  0
  -11.1187   -0.1510    0.0000 C   0  0  0  0  0  0  0  0  0  0  0  0
  -10.4043   -0.5635    0.0000 C   0  0  0  0  0  0  0  0  0  0  0  0
   -9.6898   -0.1510    0.0000 C   0  0  0  0  0  0  0  0  0  0  0  0
   -8.9753   -0.5635    0.0000 C   0  0  0  0  0  0  0  0  0  0  0  0
   -8.2608   -0.1510    0.0000 C   0  0  0  0  0  0  0  0  0  0  0  0
   -7.5464   -0.5635    0.0000 C   0  0  0  0  0  0  0  0  0  0  0  0
   -6.8319   -0.1510    0.0000 C   0  0  0  0  0  0  0  0  0  0  0  0
   -6.1174   -0.5635    0.0000 C   0  0  0  0  0  0  0  0  0  0  0  0
   -5.4030   -0.1510    0.0000 C   0  0  0  0  0  0  0  0  0  0  0  0
   -4.6885   -0.5635    0.0000 S   0  0  0  0  0  0  0  0  0  0  0  0
   -3.9740   -0.1510    0.0000 S   0  0  0  0  0  0  0  0  0  0  0  0
   -3.2595   -0.5635    0.0000 C   0  0  0  0  0  0  0  0  0  0  0  0
   -2.5451   -0.1510    0.0000 C   0  0  0  0  0  0  0  0  0  0  0  0
   -1.8306   -0.5635    0.0000 C   0  0  0  0  0  0  0  0  0  0  0  0
   -1.1161   -0.1510    0.0000 C   0  0  0  0  0  0  0  0  0  0  0  0
   -0.4017   -0.5635    0.0000 C   0  0  0  0  0  0  0  0  0  0  0  0
    0.3128   -0.1510    0.0000 C   0  0  0  0  0  0  0  0  0  0  0  0
    1.0273   -0.5635    0.0000 C   0  0  0  0  0  0  0  0  0  0  0  0
    1.7418   -0.1510    0.0000 C   0  0  0  0  0  0  0  0  0  0  0  0
    2.4562   -0.5635    0.0000 C   0  0  0  0  0  0  0  0  0  0  0  0
    3.1707   -0.1510    0.0000 C   0  0  0  0  0  0  0  0  0  0  0  0
  1  2  1  0  0  0  0
  2  3  1  0  0  0  0
  3  4  1  0  0  0  0
  4  5  1  0  0  0  0
  5  6  1  0  0  0  0
  6  7  1  0  0  0  0
  7  8  1  0  0  0  0
  8  9  1  0  0  0  0
  9 10  1  0  0  0  0
 10 11  1  0  0  0  0
 11 12  1  0  0  0  0
 12 13  1  0  0  0  0
 13 14  1  0  0  0  0
 14 15  1  0  0  0  0
 15 16  1  0  0  0  0
 16 17  1  0  0  0  0
 17 18  1  0  0  0  0
 18 19  1  0  0  0  0
 19 20  1  0  0  0  0
 20 21  1  0  0  0  0
 21 22  1  0  0  0  0
M  END
> <ChemID>
201646

> <CAS>
10496-18-1

> <Original_SMILES>
CCCCCCCCCCSSCCCCCCCCCC

> <preferred_name>
Decyl disulfide

> <dsstox_substance_id>
DTXSID80146874

> <dsstox_compound_id>
DTXCID2069365

> <qc_level>


> <Canonical_QSARr>
CCCCCCCCCCSSCCCCCCCCCC

> <InChI_Code_QSARr>
InChI=1S/C20H42S2/c1-3-5-7-9-11-13-15-17-19-21-22-20-18-16-14-12-10-8-6-4-2/h3-20H2,1-2H3

> <InChI Key_QSARr>
IDJPKRIELSFBPE-UHFFFAOYSA-N

> <Salt_Solvent>


> <Salt_Solvent_ID>
0

> <MPID>
101394

> <Tr_1_Tst_0>
1

> <Ready_Biodeg>
0.0

$$$$
Row1360
  Mrv171c012251911052D          

 25 25  0  0  0  0            999 V2000
   -0.7057    3.6821    0.0000 C   0  0  0  0  0  0  0  0  0  0  0  0
   -0.7057    2.8571    0.0000 C   0  0  0  0  0  0  0  0  0  0  0  0
    0.0088    2.4446    0.0000 C   0  0  0  0  0  0  0  0  0  0  0  0
    0.0088    1.6196    0.0000 C   0  0  0  0  0  0  0  0  0  0  0  0
    0.7233    1.2071    0.0000 C   0  0  0  0  0  0  0  0  0  0  0  0
    0.7233    0.3821    0.0000 C   0  0  0  0  0  0  0  0  0  0  0  0
    1.4378   -0.0304    0.0000 C   0  0  0  0  0  0  0  0  0  0  0  0
    1.4378   -0.8554    0.0000 C   0  0  0  0  0  0  0  0  0  0  0  0
    2.1522   -1.2679    0.0000 C   0  0  0  0  0  0  0  0  0  0  0  0
    2.1522   -2.0929    0.0000 C   0  0  0  0  0  0  0  0  0  0  0  0
    1.4378   -2.5054    0.0000 C   0  0  0  0  0  0  0  0  0  0  0  0
    1.4378   -3.3304    0.0000 C   0  0  0  0  0  0  0  0  0  0  0  0
    2.1522   -3.7429    0.0000 C   0  0  0  0  0  0  0  0  0  0  0  0
    2.8667   -3.3304    0.0000 C   0  0  0  0  0  0  0  0  0  0  0  0
    3.5812   -3.7429    0.0000 O   0  0  0  0  0  0  0  0  0  0  0  0
    2.8667   -2.5054    0.0000 C   0  0  0  0  0  0  0  0  0  0  0  0
    3.5812   -2.0929    0.0000 C   0  0  0  0  0  0  0  0  0  0  0  0
    4.2956   -2.5054    0.0000 C   0  0  0  0  0  0  0  0  0  0  0  0
    5.0101   -2.0929    0.0000 C   0  0  0  0  0  0  0  0  0  0  0  0
    5.7246   -2.5054    0.0000 C   0  0  0  0  0  0  0  0  0  0  0  0
    6.4391   -2.0929    0.0000 C   0  0  0  0  0  0  0  0  0  0  0  0
    7.1535   -2.5054    0.0000 C   0  0  0  0  0  0  0  0  0  0  0  0
    7.8680   -2.0929    0.0000 C   0  0  0  0  0  0  0  0  0  0  0  0
    8.5825   -2.5054    0.0000 C   0  0  0  0  0  0  0  0  0  0  0  0
    9.2969   -2.0929    0.0000 C   0  0  0  0  0  0  0  0  0  0  0  0
  1  2  1  0  0  0  0
  2  3  1  0  0  0  0
  3  4  1  0  0  0  0
  4  5  1  0  0  0  0
  5  6  1  0  0  0  0
  6  7  1  0  0  0  0
  7  8  1  0  0  0  0
  8  9  1  0  0  0  0
  9 10  1  0  0  0  0
 11 10  2  0  0  0  0
 12 11  1  0  0  0  0
 13 12  2  0  0  0  0
 14 13  1  0  0  0  0
 14 15  1  0  0  0  0
 16 14  2  0  0  0  0
 10 16  1  0  0  0  0
 16 17  1  0  0  0  0
 17 18  1  0  0  0  0
 18 19  1  0  0  0  0
 19 20  1  0  0  0  0
 20 21  1  0  0  0  0
 21 22  1  0  0  0  0
 22 23  1  0  0  0  0
 23 24  1  0  0  0  0
 24 25  1  0  0  0  0
M  END
> <ChemID>
201647

> <CAS>
1323-65-5

> <Original_SMILES>
CCCCCCCCCc1cccc(O)c1CCCCCCCCC

> <preferred_name>
Phenol, dinonyl-

> <dsstox_substance_id>
DTXSID7027382

> <dsstox_compound_id>
DTXCID001323374

> <qc_level>


> <Canonical_QSARr>
CCCCCCCCCC1=CC=CC(O)=C1CCCCCCCCC

> <InChI_Code_QSARr>
InChI=1S/C24H42O/c1-3-5-7-9-11-13-15-18-22-19-17-21-24(25)23(22)20-16-14-12-10-8-6-4-2/h17,19,21,25H,3-16,18,20H2,1-2H3

> <InChI Key_QSARr>
JKTAIYGNOFSMCE-UHFFFAOYSA-N

> <Salt_Solvent>


> <Salt_Solvent_ID>
0

> <MPID>
101395

> <Tr_1_Tst_0>
0

> <Ready_Biodeg>
0.0

$$$$
Row1361
  Mrv171c012251911052D          

 17 16  0  0  0  0            999 V2000
   -8.5736    0.0971    0.0000 C   0  0  0  0  0  0  0  0  0  0  0  0
   -7.8592   -0.3154    0.0000 C   0  0  0  0  0  0  0  0  0  0  0  0
   -7.1447    0.0971    0.0000 C   0  0  0  0  0  0  0  0  0  0  0  0
   -6.4302   -0.3154    0.0000 C   0  0  0  0  0  0  0  0  0  0  0  0
   -5.7157    0.0971    0.0000 C   0  0  0  0  0  0  0  0  0  0  0  0
   -5.0013   -0.3154    0.0000 C   0  0  0  0  0  0  0  0  0  0  0  0
   -4.2868    0.0971    0.0000 C   0  0  0  0  0  0  0  0  0  0  0  0
   -3.5723   -0.3154    0.0000 C   0  0  0  0  0  0  0  0  0  0  0  0
   -2.8579    0.0971    0.0000 N   0  0  0  0  0  0  0  0  0  0  0  0
   -2.1434   -0.3154    0.0000 C   0  0  0  0  0  0  0  0  0  0  0  0
   -1.4289    0.0971    0.0000 C   0  0  0  0  0  0  0  0  0  0  0  0
   -0.7144   -0.3154    0.0000 C   0  0  0  0  0  0  0  0  0  0  0  0
    0.0000    0.0971    0.0000 C   0  0  0  0  0  0  0  0  0  0  0  0
    0.7145   -0.3154    0.0000 C   0  0  0  0  0  0  0  0  0  0  0  0
    1.4290    0.0971    0.0000 C   0  0  0  0  0  0  0  0  0  0  0  0
    2.1434   -0.3154    0.0000 C   0  0  0  0  0  0  0  0  0  0  0  0
    2.8579    0.0971    0.0000 C   0  0  0  0  0  0  0  0  0  0  0  0
  1  2  1  0  0  0  0
  2  3  1  0  0  0  0
  3  4  1  0  0  0  0
  4  5  1  0  0  0  0
  5  6  1  0  0  0  0
  6  7  1  0  0  0  0
  7  8  1  0  0  0  0
  8  9  1  0  0  0  0
  9 10  1  0  0  0  0
 10 11  1  0  0  0  0
 11 12  1  0  0  0  0
 12 13  1  0  0  0  0
 13 14  1  0  0  0  0
 14 15  1  0  0  0  0
 15 16  1  0  0  0  0
 16 17  1  0  0  0  0
M  END
> <ChemID>
201649

> <CAS>
1120-48-5

> <Original_SMILES>
CCCCCCCCNCCCCCCCC

> <preferred_name>
1-Octanamine, N-octyl-

> <dsstox_substance_id>
DTXSID2061517

> <dsstox_compound_id>
DTXCID8033271

> <qc_level>


> <Canonical_QSARr>
CCCCCCCCNCCCCCCCC

> <InChI_Code_QSARr>
InChI=1S/C16H35N/c1-3-5-7-9-11-13-15-17-16-14-12-10-8-6-4-2/h17H,3-16H2,1-2H3

> <InChI Key_QSARr>
LAWOZCWGWDVVSG-UHFFFAOYSA-N

> <Salt_Solvent>


> <Salt_Solvent_ID>
0

> <MPID>
101396

> <Tr_1_Tst_0>
1

> <Ready_Biodeg>
1.0

$$$$
Row1362
  Mrv171c012251911052D          

 29 30  0  0  0  0            999 V2000
  -12.2191   -2.3541    0.0000 C   0  0  0  0  0  0  0  0  0  0  0  0
  -11.5047   -2.7666    0.0000 C   0  0  0  0  0  0  0  0  0  0  0  0
  -10.7902   -2.3541    0.0000 C   0  0  0  0  0  0  0  0  0  0  0  0
  -10.0757   -2.7666    0.0000 C   0  0  0  0  0  0  0  0  0  0  0  0
   -9.3613   -2.3541    0.0000 C   0  0  0  0  0  0  0  0  0  0  0  0
   -8.6468   -2.7666    0.0000 C   0  0  0  0  0  0  0  0  0  0  0  0
   -7.9323   -2.3541    0.0000 C   0  0  0  0  0  0  0  0  0  0  0  0
   -7.2178   -2.7666    0.0000 C   0  0  0  0  0  0  0  0  0  0  0  0
   -6.5034   -2.3541    0.0000 C   0  0  0  0  0  0  0  0  0  0  0  0
   -5.7889   -2.7666    0.0000 C   0  0  0  0  0  0  0  0  0  0  0  0
   -5.0744   -2.3541    0.0000 C   0  0  0  0  0  0  0  0  0  0  0  0
   -5.0744   -1.5291    0.0000 C   0  0  0  0  0  0  0  0  0  0  0  0
   -4.3600   -1.1166    0.0000 N   0  0  0  0  0  0  0  0  0  0  0  0
   -4.3600   -0.2916    0.0000 C   0  0  0  0  0  0  0  0  0  0  0  0
   -3.6455    0.1209    0.0000 C   0  0  0  0  0  0  0  0  0  0  0  0
   -3.6455    0.9459    0.0000 C   0  0  0  0  0  0  0  0  0  0  0  0
   -4.3600    1.3584    0.0000 C   0  0  0  0  0  0  0  0  0  0  0  0
   -4.3600    2.1834    0.0000 C   0  0  0  0  0  0  0  0  0  0  0  0
   -3.6455    2.5959    0.0000 C   0  0  0  0  0  0  0  0  0  0  0  0
   -2.9310    2.1834    0.0000 C   0  0  0  0  0  0  0  0  0  0  0  0
   -2.2165    2.5959    0.0000 C   0  0  0  0  0  0  0  0  0  0  0  0
   -1.5021    2.1834    0.0000 C   0  0  0  0  0  0  0  0  0  0  0  0
   -0.7876    2.5959    0.0000 C   0  0  0  0  0  0  0  0  0  0  0  0
   -0.0731    2.1834    0.0000 C   0  0  0  0  0  0  0  0  0  0  0  0
    0.6413    2.5959    0.0000 C   0  0  0  0  0  0  0  0  0  0  0  0
   -5.0744    0.9459    0.0000 C   0  0  0  0  0  0  0  0  0  0  0  0
   -5.0744    0.1209    0.0000 C   0  0  0  0  0  0  0  0  0  0  0  0
   -5.7889   -1.1166    0.0000 C   0  0  0  0  0  0  0  0  0  0  0  0
   -6.5034   -1.5291    0.0000 C   0  0  0  0  0  0  0  0  0  0  0  0
  1  2  1  0  0  0  0
  2  3  1  0  0  0  0
  3  4  1  0  0  0  0
  4  5  1  0  0  0  0
  5  6  1  0  0  0  0
  6  7  1  0  0  0  0
  7  8  1  0  0  0  0
  8  9  1  0  0  0  0
 10  9  2  0  0  0  0
 11 10  1  0  0  0  0
 12 11  2  0  0  0  0
 12 13  1  0  0  0  0
 13 14  1  0  0  0  0
 15 14  2  0  0  0  0
 16 15  1  0  0  0  0
 17 16  2  0  0  0  0
 17 18  1  0  0  0  0
 18 19  1  0  0  0  0
 19 20  1  0  0  0  0
 20 21  1  0  0  0  0
 21 22  1  0  0  0  0
 22 23  1  0  0  0  0
 23 24  1  0  0  0  0
 24 25  1  0  0  0  0
 26 17  1  0  0  0  0
 27 26  2  0  0  0  0
 14 27  1  0  0  0  0
 28 12  1  0  0  0  0
 29 28  2  0  0  0  0
  9 29  1  0  0  0  0
M  END
> <ChemID>
201656

> <CAS>
101-67-7

> <Original_SMILES>
CCCCCCCCc1ccc(cc1)Nc1ccc(CCCCCCCC)cc1

> <preferred_name>
4,4'-Dioctyldiphenylamine

> <dsstox_substance_id>
DTXSID3025170

> <dsstox_compound_id>
DTXCID805170

> <qc_level>


> <Canonical_QSARr>
CCCCCCCCC1C=CC(=CC=1)NC1C=CC(CCCCCCCC)=CC=1

> <InChI_Code_QSARr>
InChI=1S/C28H43N/c1-3-5-7-9-11-13-15-25-17-21-27(22-18-25)29-28-23-19-26(20-24-28)16-14-12-10-8-6-4-2/h17-24,29H,3-16H2,1-2H3

> <InChI Key_QSARr>
QAPVYZRWKDXNDK-UHFFFAOYSA-N

> <Salt_Solvent>


> <Salt_Solvent_ID>
0

> <MPID>
101397

> <Tr_1_Tst_0>
0

> <Ready_Biodeg>
0.0

$$$$
Row1363
  Mrv171c012251911052D          

 29 30  0  0  0  0            999 V2000
    6.2842    0.7183    0.0000 C   0  0  0  0  0  0  0  0  0  0  0  0
    5.7441    0.0947    0.0000 C   0  0  0  0  0  0  0  0  0  0  0  0
    4.9340    0.2506    0.0000 C   0  0  0  0  0  0  0  0  0  0  0  0
    4.3939   -0.3730    0.0000 C   0  0  0  0  0  0  0  0  0  0  0  0
    3.5838   -0.2171    0.0000 C   0  0  0  0  0  0  0  0  0  0  0  0
    3.0437   -0.8408    0.0000 C   0  0  0  0  0  0  0  0  0  0  0  0
    2.2336   -0.6849    0.0000 C   0  0  0  0  0  0  0  0  0  0  0  0
    1.6935   -1.3085    0.0000 C   0  0  0  0  0  0  0  0  0  0  0  0
    0.8833   -1.1526    0.0000 C   0  0  0  0  0  0  0  0  0  0  0  0
    0.6133   -0.3730    0.0000 C   0  0  0  0  0  0  0  0  0  0  0  0
   -0.1968   -0.2171    0.0000 C   0  0  0  0  0  0  0  0  0  0  0  0
   -0.7369   -0.8408    0.0000 C   0  0  0  0  0  0  0  0  0  0  0  0
   -0.4669   -1.6203    0.0000 C   0  0  0  0  0  0  0  0  0  0  0  0
    0.3432   -1.7762    0.0000 C   0  0  0  0  0  0  0  0  0  0  0  0
    0.6133   -2.5558    0.0000 N   0  0  0  0  0  0  0  0  0  0  0  0
    0.0732   -3.1794    0.0000 C   0  0  0  0  0  0  0  0  0  0  0  0
   -0.7369   -3.0235    0.0000 C   0  0  0  0  0  0  0  0  0  0  0  0
   -1.2770   -3.6472    0.0000 C   0  0  0  0  0  0  0  0  0  0  0  0
   -1.0070   -4.4267    0.0000 C   0  0  0  0  0  0  0  0  0  0  0  0
   -0.1968   -4.5826    0.0000 C   0  0  0  0  0  0  0  0  0  0  0  0
    0.3432   -3.9590    0.0000 C   0  0  0  0  0  0  0  0  0  0  0  0
    1.1534   -4.1149    0.0000 C   0  0  0  0  0  0  0  0  0  0  0  0
    1.4234   -4.8944    0.0000 C   0  0  0  0  0  0  0  0  0  0  0  0
    2.2336   -5.0504    0.0000 C   0  0  0  0  0  0  0  0  0  0  0  0
    2.7736   -4.4267    0.0000 C   0  0  0  0  0  0  0  0  0  0  0  0
    3.5838   -4.5826    0.0000 C   0  0  0  0  0  0  0  0  0  0  0  0
    4.1239   -3.9590    0.0000 C   0  0  0  0  0  0  0  0  0  0  0  0
    4.9340   -4.1149    0.0000 C   0  0  0  0  0  0  0  0  0  0  0  0
    5.4741   -3.4913    0.0000 C   0  0  0  0  0  0  0  0  0  0  0  0
  1  2  1  0  0  0  0
  2  3  1  0  0  0  0
  3  4  1  0  0  0  0
  4  5  1  0  0  0  0
  5  6  1  0  0  0  0
  6  7  1  0  0  0  0
  7  8  1  0  0  0  0
  8  9  1  0  0  0  0
 10  9  2  0  0  0  0
 11 10  1  0  0  0  0
 12 11  2  0  0  0  0
 13 12  1  0  0  0  0
 14 13  2  0  0  0  0
  9 14  1  0  0  0  0
 14 15  1  0  0  0  0
 15 16  1  0  0  0  0
 17 16  2  0  0  0  0
 18 17  1  0  0  0  0
 19 18  2  0  0  0  0
 20 19  1  0  0  0  0
 21 20  2  0  0  0  0
 16 21  1  0  0  0  0
 21 22  1  0  0  0  0
 22 23  1  0  0  0  0
 23 24  1  0  0  0  0
 24 25  1  0  0  0  0
 25 26  1  0  0  0  0
 26 27  1  0  0  0  0
 27 28  1  0  0  0  0
 28 29  1  0  0  0  0
M  END
> <ChemID>
201657

> <CAS>
26603-23-6

> <Original_SMILES>
CCCCCCCCc1ccccc1Nc1ccccc1CCCCCCCC

> <preferred_name>


> <dsstox_substance_id>
DTXSID70873102

> <dsstox_compound_id>


> <qc_level>


> <Canonical_QSARr>
CCCCCCCCC1=CC=CC=C1NC1=CC=CC=C1CCCCCCCC

> <InChI_Code_QSARr>
InChI=1S/C28H43N/c1-3-5-7-9-11-13-19-25-21-15-17-23-27(25)29-28-24-18-16-22-26(28)20-14-12-10-8-6-4-2/h15-18,21-24,29H,3-14,19-20H2,1-2H3

> <InChI Key_QSARr>
FOUNRKRNEDRUPL-UHFFFAOYSA-N

> <Salt_Solvent>


> <Salt_Solvent_ID>
0

> <MPID>
101398

> <Tr_1_Tst_0>
1

> <Ready_Biodeg>
0.0

$$$$
Row1364
  Mrv171c012251911052D          

 20 19  0  0  0  0            999 V2000
    2.3305   -3.8799    0.0000 C   0  0  0  0  0  0  0  0  0  0  0  0
    1.9180   -3.1654    0.0000 C   0  0  0  0  0  0  0  0  0  0  0  0
    2.3305   -2.4509    0.0000 C   0  0  0  0  0  0  0  0  0  0  0  0
    1.9180   -1.7365    0.0000 C   0  0  0  0  0  0  0  0  0  0  0  0
    2.3305   -1.0220    0.0000 C   0  0  0  0  0  0  0  0  0  0  0  0
    1.9180   -0.3075    0.0000 O   0  0  0  0  0  0  0  0  0  0  0  0
    2.3305    0.4069    0.0000 P   0  0  0  0  0  0  0  0  0  0  0  0
    3.0450   -0.0056    0.0000 O   0  0  0  0  0  0  0  0  0  0  0  0
    2.7430    1.1214    0.0000 O   0  0  0  0  0  0  0  0  0  0  0  0
    3.5680    1.1214    0.0000 C   0  0  0  0  0  0  0  0  0  0  0  0
    3.9805    0.4069    0.0000 C   0  0  0  0  0  0  0  0  0  0  0  0
    4.8055    0.4069    0.0000 C   0  0  0  0  0  0  0  0  0  0  0  0
    5.2180   -0.3075    0.0000 C   0  0  0  0  0  0  0  0  0  0  0  0
    6.0430   -0.3075    0.0000 C   0  0  0  0  0  0  0  0  0  0  0  0
    1.6161    0.8194    0.0000 O   0  0  0  0  0  0  0  0  0  0  0  0
    1.6161    1.6444    0.0000 C   0  0  0  0  0  0  0  0  0  0  0  0
    2.3305    2.0569    0.0000 C   0  0  0  0  0  0  0  0  0  0  0  0
    3.0450    1.6444    0.0000 C   0  0  0  0  0  0  0  0  0  0  0  0
    3.7595    2.0569    0.0000 C   0  0  0  0  0  0  0  0  0  0  0  0
    4.4739    1.6444    0.0000 C   0  0  0  0  0  0  0  0  0  0  0  0
  1  2  1  0  0  0  0
  2  3  1  0  0  0  0
  3  4  1  0  0  0  0
  4  5  1  0  0  0  0
  5  6  1  0  0  0  0
  6  7  1  0  0  0  0
  7  8  2  0  0  0  0
  7  9  1  0  0  0  0
  9 10  1  0  0  0  0
 10 11  1  0  0  0  0
 11 12  1  0  0  0  0
 12 13  1  0  0  0  0
 13 14  1  0  0  0  0
  7 15  1  0  0  0  0
 15 16  1  0  0  0  0
 16 17  1  0  0  0  0
 17 18  1  0  0  0  0
 18 19  1  0  0  0  0
 19 20  1  0  0  0  0
M  END
> <ChemID>
201662

> <CAS>
2528-38-3

> <Original_SMILES>
CCCCCOP(=O)(OCCCCC)OCCCCC

> <preferred_name>
Tripentyl phosphate

> <dsstox_substance_id>
DTXSID3052698

> <dsstox_compound_id>
DTXCID7031296

> <qc_level>


> <Canonical_QSARr>
CCCCCOP(=O)(OCCCCC)OCCCCC

> <InChI_Code_QSARr>
InChI=1S/C15H33O4P/c1-4-7-10-13-17-20(16,18-14-11-8-5-2)19-15-12-9-6-3/h4-15H2,1-3H3

> <InChI Key_QSARr>
QJAVUVZBMMXBRO-UHFFFAOYSA-N

> <Salt_Solvent>


> <Salt_Solvent_ID>
0

> <MPID>
101399

> <Tr_1_Tst_0>
1

> <Ready_Biodeg>
0.0

$$$$
Row1365
  Mrv171c012251911052D          

 13 12  0  0  0  0            999 V2000
    1.2091    2.8558    0.0000 C   0  0  0  0  0  0  0  0  0  0  0  0
    0.4947    2.4433    0.0000 C   0  0  0  0  0  0  0  0  0  0  0  0
    0.4947    1.6183    0.0000 C   0  0  0  0  0  0  0  0  0  0  0  0
   -0.2198    1.2058    0.0000 C   0  0  0  0  0  0  0  0  0  0  0  0
   -0.2198    0.3808    0.0000 N   0  0  0  0  0  0  0  0  0  0  0  0
   -0.9343   -0.0317    0.0000 C   0  0  0  0  0  0  0  0  0  0  0  0
   -0.9343   -0.8567    0.0000 C   0  0  0  0  0  0  0  0  0  0  0  0
   -1.6488   -1.2692    0.0000 C   0  0  0  0  0  0  0  0  0  0  0  0
   -1.6488   -2.0942    0.0000 C   0  0  0  0  0  0  0  0  0  0  0  0
    0.4947   -0.0317    0.0000 C   0  0  0  0  0  0  0  0  0  0  0  0
    0.4947   -0.8567    0.0000 C   0  0  0  0  0  0  0  0  0  0  0  0
    1.2091   -1.2692    0.0000 C   0  0  0  0  0  0  0  0  0  0  0  0
    1.2091   -2.0942    0.0000 C   0  0  0  0  0  0  0  0  0  0  0  0
  1  2  1  0  0  0  0
  2  3  1  0  0  0  0
  3  4  1  0  0  0  0
  4  5  1  0  0  0  0
  5  6  1  0  0  0  0
  6  7  1  0  0  0  0
  7  8  1  0  0  0  0
  8  9  1  0  0  0  0
  5 10  1  0  0  0  0
 10 11  1  0  0  0  0
 11 12  1  0  0  0  0
 12 13  1  0  0  0  0
M  END
> <ChemID>
201664

> <CAS>
102-82-9

> <Original_SMILES>
CCCCN(CCCC)CCCC

> <preferred_name>
Tributylamine

> <dsstox_substance_id>
DTXSID4026183

> <dsstox_compound_id>
DTXCID406183

> <qc_level>


> <Canonical_QSARr>
CCCCN(CCCC)CCCC

> <InChI_Code_QSARr>
InChI=1S/C12H27N/c1-4-7-10-13(11-8-5-2)12-9-6-3/h4-12H2,1-3H3

> <InChI Key_QSARr>
IMFACGCPASFAPR-UHFFFAOYSA-N

> <Salt_Solvent>


> <Salt_Solvent_ID>
0

> <MPID>
101400

> <Tr_1_Tst_0>
0

> <Ready_Biodeg>
0.0

$$$$
Row1366
  Mrv171c012251911052D          

 12 11  0  0  0  0            999 V2000
   -2.7388    0.0688    0.0000 C   0  0  0  0  0  0  0  0  0  0  0  0
   -2.0243   -0.3437    0.0000 C   0  0  0  0  0  0  0  0  0  0  0  0
   -1.3098    0.0688    0.0000 C   0  0  0  0  0  0  0  0  0  0  0  0
   -0.5954   -0.3437    0.0000 C   0  0  0  0  0  0  0  0  0  0  0  0
    0.1191    0.0688    0.0000 N   0  0  0  0  0  0  0  0  0  0  0  0
    0.1191    0.8938    0.0000 C   0  0  0  0  0  0  0  0  0  0  0  0
   -0.5954    1.3063    0.0000 C   0  0  0  0  0  0  0  0  0  0  0  0
   -0.5954    2.1313    0.0000 O   0  0  0  0  0  0  0  0  0  0  0  0
    0.8336   -0.3437    0.0000 C   0  0  0  0  0  0  0  0  0  0  0  0
    1.5481    0.0688    0.0000 C   0  0  0  0  0  0  0  0  0  0  0  0
    2.2625   -0.3437    0.0000 C   0  0  0  0  0  0  0  0  0  0  0  0
    2.9770    0.0688    0.0000 C   0  0  0  0  0  0  0  0  0  0  0  0
  1  2  1  0  0  0  0
  2  3  1  0  0  0  0
  3  4  1  0  0  0  0
  4  5  1  0  0  0  0
  5  6  1  0  0  0  0
  6  7  1  0  0  0  0
  7  8  1  0  0  0  0
  5  9  1  0  0  0  0
  9 10  1  0  0  0  0
 10 11  1  0  0  0  0
 11 12  1  0  0  0  0
M  END
> <ChemID>
201665

> <CAS>
102-81-8

> <Original_SMILES>
CCCCN(CCO)CCCC

> <preferred_name>
2-(Dibutylamino)ethanol

> <dsstox_substance_id>
DTXSID2024953

> <dsstox_compound_id>
DTXCID904953

> <qc_level>


> <Canonical_QSARr>
CCCCN(CCO)CCCC

> <InChI_Code_QSARr>
InChI=1S/C10H23NO/c1-3-5-7-11(9-10-12)8-6-4-2/h12H,3-10H2,1-2H3

> <InChI Key_QSARr>
IWSZDQRGNFLMJS-UHFFFAOYSA-N

> <Salt_Solvent>


> <Salt_Solvent_ID>
0

> <MPID>
101401

> <Tr_1_Tst_0>
1

> <Ready_Biodeg>
0.0

$$$$
Row1367
  Mrv171c012251911052D          

 14 14  0  0  0  0            999 V2000
   -0.8676    3.2116    0.0000 C   0  0  0  0  0  0  0  0  0  0  0  0
   -0.8676    2.3866    0.0000 C   0  0  0  0  0  0  0  0  0  0  0  0
   -1.5821    1.9741    0.0000 C   0  0  0  0  0  0  0  0  0  0  0  0
   -1.5821    1.1491    0.0000 C   0  0  0  0  0  0  0  0  0  0  0  0
   -2.2966    0.7366    0.0000 N   0  0  0  0  0  0  0  0  0  0  0  0
   -2.2966   -0.0884    0.0000 S   0  0  0  0  0  0  0  0  0  0  0  0
   -3.1216   -0.0884    0.0000 O   0  0  0  0  0  0  0  0  0  0  0  0
   -1.4716   -0.0884    0.0000 O   0  0  0  0  0  0  0  0  0  0  0  0
   -2.2966   -0.9134    0.0000 C   0  0  0  0  0  0  0  0  0  0  0  0
   -3.0110   -1.3259    0.0000 C   0  0  0  0  0  0  0  0  0  0  0  0
   -3.0110   -2.1509    0.0000 C   0  0  0  0  0  0  0  0  0  0  0  0
   -2.2966   -2.5634    0.0000 C   0  0  0  0  0  0  0  0  0  0  0  0
   -1.5821   -2.1509    0.0000 C   0  0  0  0  0  0  0  0  0  0  0  0
   -1.5821   -1.3259    0.0000 C   0  0  0  0  0  0  0  0  0  0  0  0
  1  2  1  0  0  0  0
  2  3  1  0  0  0  0
  3  4  1  0  0  0  0
  4  5  1  0  0  0  0
  5  6  1  0  0  0  0
  6  7  2  0  0  0  0
  6  8  2  0  0  0  0
  6  9  1  0  0  0  0
 10  9  2  0  0  0  0
 11 10  1  0  0  0  0
 12 11  2  0  0  0  0
 13 12  1  0  0  0  0
 14 13  2  0  0  0  0
  9 14  1  0  0  0  0
M  END
> <ChemID>
201667

> <CAS>
3622-84-2

> <Original_SMILES>
CCCCNS(=O)(=O)c1ccccc1

> <preferred_name>
N-Butylbenzenesulfonamide

> <dsstox_substance_id>
DTXSID7027540

> <dsstox_compound_id>
DTXCID907540

> <qc_level>


> <Canonical_QSARr>
CCCCNS(=O)(=O)C1C=CC=CC=1

> <InChI_Code_QSARr>
InChI=1S/C10H15NO2S/c1-2-3-9-11-14(12,13)10-7-5-4-6-8-10/h4-8,11H,2-3,9H2,1H3

> <InChI Key_QSARr>
IPRJXAGUEGOFGG-UHFFFAOYSA-N

> <Salt_Solvent>


> <Salt_Solvent_ID>
0

> <MPID>
101402

> <Tr_1_Tst_0>
1

> <Ready_Biodeg>
0.0

$$$$
Row1368
  Mrv171c012251911052D          

 18 17  0  0  0  0            999 V2000
   -4.9460   -0.2062    0.0000 C   0  0  0  0  0  0  0  0  0  0  0  0
   -4.2316    0.2063    0.0000 C   0  0  0  0  0  0  0  0  0  0  0  0
   -3.5171   -0.2062    0.0000 C   0  0  0  0  0  0  0  0  0  0  0  0
   -2.8026    0.2063    0.0000 C   0  0  0  0  0  0  0  0  0  0  0  0
   -2.0881   -0.2062    0.0000 O   0  0  0  0  0  0  0  0  0  0  0  0
   -1.3737    0.2063    0.0000 C   0  0  0  0  0  0  0  0  0  0  0  0
   -1.3737    1.0313    0.0000 O   0  0  0  0  0  0  0  0  0  0  0  0
   -0.6592   -0.2062    0.0000 C   0  0  0  0  0  0  0  0  0  0  0  0
    0.0553    0.2063    0.0000 C   0  0  0  0  0  0  0  0  0  0  0  0
    0.7697   -0.2062    0.0000 C   0  0  0  0  0  0  0  0  0  0  0  0
    1.4842    0.2063    0.0000 C   0  0  0  0  0  0  0  0  0  0  0  0
    2.1987   -0.2062    0.0000 C   0  0  0  0  0  0  0  0  0  0  0  0
    2.1987   -1.0312    0.0000 O   0  0  0  0  0  0  0  0  0  0  0  0
    2.9131    0.2063    0.0000 O   0  0  0  0  0  0  0  0  0  0  0  0
    3.6276   -0.2062    0.0000 C   0  0  0  0  0  0  0  0  0  0  0  0
    4.3421    0.2063    0.0000 C   0  0  0  0  0  0  0  0  0  0  0  0
    5.0566   -0.2062    0.0000 C   0  0  0  0  0  0  0  0  0  0  0  0
    5.7710    0.2063    0.0000 C   0  0  0  0  0  0  0  0  0  0  0  0
  1  2  1  0  0  0  0
  2  3  1  0  0  0  0
  3  4  1  0  0  0  0
  4  5  1  0  0  0  0
  5  6  1  0  0  0  0
  6  7  2  0  0  0  0
  6  8  1  0  0  0  0
  8  9  1  0  0  0  0
  9 10  1  0  0  0  0
 10 11  1  0  0  0  0
 11 12  1  0  0  0  0
 12 13  2  0  0  0  0
 12 14  1  0  0  0  0
 14 15  1  0  0  0  0
 15 16  1  0  0  0  0
 16 17  1  0  0  0  0
 17 18  1  0  0  0  0
M  END
> <ChemID>
201669

> <CAS>
105-99-7

> <Original_SMILES>
CCCCOC(=O)CCCCC(=O)OCCCC

> <preferred_name>
Dibutyl hexanedioate

> <dsstox_substance_id>
DTXSID2021866

> <dsstox_compound_id>
DTXCID901866

> <qc_level>


> <Canonical_QSARr>
CCCCOC(=O)CCCCC(=O)OCCCC

> <InChI_Code_QSARr>
InChI=1S/C14H26O4/c1-3-5-11-17-13(15)9-7-8-10-14(16)18-12-6-4-2/h3-12H2,1-2H3

> <InChI Key_QSARr>
XTJFFFGAUHQWII-UHFFFAOYSA-N

> <Salt_Solvent>


> <Salt_Solvent_ID>
0

> <MPID>
101403

> <Tr_1_Tst_0>
1

> <Ready_Biodeg>
1.0

$$$$
Row1369
  Mrv171c012251911052D          

 27 27  0  0  0  0            999 V2000
   -2.9203    0.5431    0.0000 C   0  0  0  0  0  0  0  0  0  0  0  0
   -2.9203   -0.2819    0.0000 C   0  0  0  0  0  0  0  0  0  0  0  0
   -2.2058   -0.6944    0.0000 C   0  0  0  0  0  0  0  0  0  0  0  0
   -2.2058   -1.5194    0.0000 C   0  0  0  0  0  0  0  0  0  0  0  0
   -1.4914   -1.9319    0.0000 O   0  0  0  0  0  0  0  0  0  0  0  0
   -1.4914   -2.7569    0.0000 C   0  0  0  0  0  0  0  0  0  0  0  0
   -2.2058   -3.1694    0.0000 O   0  0  0  0  0  0  0  0  0  0  0  0
   -0.7769   -3.1694    0.0000 C   0  0  0  0  0  0  0  0  0  0  0  0
   -0.7769   -3.9944    0.0000 C   0  0  0  0  0  0  0  0  0  0  0  0
   -0.0624   -4.4069    0.0000 C   0  0  0  0  0  0  0  0  0  0  0  0
    0.6521   -3.9944    0.0000 C   0  0  0  0  0  0  0  0  0  0  0  0
    1.3665   -4.4069    0.0000 C   0  0  0  0  0  0  0  0  0  0  0  0
    1.3665   -5.2319    0.0000 O   0  0  0  0  0  0  0  0  0  0  0  0
    2.0810   -3.9944    0.0000 O   0  0  0  0  0  0  0  0  0  0  0  0
    2.7955   -4.4069    0.0000 C   0  0  0  0  0  0  0  0  0  0  0  0
    3.5099   -3.9944    0.0000 C   0  0  0  0  0  0  0  0  0  0  0  0
    4.2244   -4.4069    0.0000 C   0  0  0  0  0  0  0  0  0  0  0  0
    4.9389   -3.9944    0.0000 C   0  0  0  0  0  0  0  0  0  0  0  0
    0.6521   -3.1694    0.0000 C   0  0  0  0  0  0  0  0  0  0  0  0
    1.3665   -2.7569    0.0000 C   0  0  0  0  0  0  0  0  0  0  0  0
    1.3665   -1.9319    0.0000 O   0  0  0  0  0  0  0  0  0  0  0  0
    2.0810   -3.1694    0.0000 O   0  0  0  0  0  0  0  0  0  0  0  0
    2.7955   -2.7569    0.0000 C   0  0  0  0  0  0  0  0  0  0  0  0
    3.5099   -3.1694    0.0000 C   0  0  0  0  0  0  0  0  0  0  0  0
    4.2244   -2.7569    0.0000 C   0  0  0  0  0  0  0  0  0  0  0  0
    4.9389   -3.1694    0.0000 C   0  0  0  0  0  0  0  0  0  0  0  0
   -0.0624   -2.7569    0.0000 C   0  0  0  0  0  0  0  0  0  0  0  0
  1  2  1  0  0  0  0
  2  3  1  0  0  0  0
  3  4  1  0  0  0  0
  4  5  1  0  0  0  0
  5  6  1  0  0  0  0
  6  7  2  0  0  0  0
  6  8  1  0  0  0  0
  9  8  2  0  0  0  0
 10  9  1  0  0  0  0
 11 10  2  0  0  0  0
 11 12  1  0  0  0  0
 12 13  2  0  0  0  0
 12 14  1  0  0  0  0
 14 15  1  0  0  0  0
 15 16  1  0  0  0  0
 16 17  1  0  0  0  0
 17 18  1  0  0  0  0
 19 11  1  0  0  0  0
 19 20  1  0  0  0  0
 20 21  2  0  0  0  0
 20 22  1  0  0  0  0
 22 23  1  0  0  0  0
 23 24  1  0  0  0  0
 24 25  1  0  0  0  0
 25 26  1  0  0  0  0
 27 19  2  0  0  0  0
  8 27  1  0  0  0  0
M  END
> <ChemID>
201671

> <CAS>
1726-23-4

> <Original_SMILES>
CCCCOC(=O)c1ccc(cc1C(=O)OCCCC)C(=O)OCCCC

> <preferred_name>
Tributyl benzene-1,2,4-tricarboxylate

> <dsstox_substance_id>
DTXSID50169353

> <dsstox_compound_id>
DTXCID1091844

> <qc_level>


> <Canonical_QSARr>
CCCCOC(=O)C1=CC=C(C=C1C(=O)OCCCC)C(=O)OCCCC

> <InChI_Code_QSARr>
InChI=1S/C21H30O6/c1-4-7-12-25-19(22)16-10-11-17(20(23)26-13-8-5-2)18(15-16)21(24)27-14-9-6-3/h10-11,15H,4-9,12-14H2,1-3H3

> <InChI Key_QSARr>
RJIFVNWOLLIBJV-UHFFFAOYSA-N

> <Salt_Solvent>


> <Salt_Solvent_ID>
0

> <MPID>
101404

> <Tr_1_Tst_0>
1

> <Ready_Biodeg>
1.0

$$$$
Row1370
  Mrv171c012251911052D          

 11 10  0  0  0  0            999 V2000
   -5.3260   -0.0750    0.0000 C   0  0  0  0  0  0  0  0  0  0  0  0
   -4.6115    0.3375    0.0000 C   0  0  0  0  0  0  0  0  0  0  0  0
   -3.8971   -0.0750    0.0000 C   0  0  0  0  0  0  0  0  0  0  0  0
   -3.1826    0.3375    0.0000 C   0  0  0  0  0  0  0  0  0  0  0  0
   -2.4681   -0.0750    0.0000 O   0  0  0  0  0  0  0  0  0  0  0  0
   -1.7536    0.3375    0.0000 C   0  0  0  0  0  0  0  0  0  0  0  0
   -1.0392   -0.0750    0.0000 N   0  0  0  0  0  0  0  0  0  0  0  0
   -0.3247    0.3375    0.0000 C   0  0  0  0  0  0  0  0  0  0  0  0
   -0.3247    1.1625    0.0000 O   0  0  0  0  0  0  0  0  0  0  0  0
    0.3898   -0.0750    0.0000 C   0  0  0  0  0  0  0  0  0  0  0  0
    1.1042    0.3375    0.0000 C   0  0  0  0  0  0  0  0  0  0  0  0
  1  2  1  0  0  0  0
  2  3  1  0  0  0  0
  3  4  1  0  0  0  0
  4  5  1  0  0  0  0
  5  6  1  0  0  0  0
  6  7  1  0  0  0  0
  7  8  1  0  0  0  0
  8  9  2  0  0  0  0
  8 10  1  0  0  0  0
 10 11  2  0  0  0  0
M  END
> <ChemID>
201681

> <CAS>
1852-16-0

> <Original_SMILES>
CCCCOCNC(=O)C=C

> <preferred_name>
N-(Butoxymethyl)acrylamide

> <dsstox_substance_id>
DTXSID9027443

> <dsstox_compound_id>
DTXCID907443

> <qc_level>


> <Canonical_QSARr>
CCCCOCNC(=O)C=C

> <InChI_Code_QSARr>
InChI=1S/C8H15NO2/c1-3-5-6-11-7-9-8(10)4-2/h4H,2-3,5-7H2,1H3,(H,9,10)

> <InChI Key_QSARr>
UTSYWKJYFPPRAP-UHFFFAOYSA-N

> <Salt_Solvent>


> <Salt_Solvent_ID>
0

> <MPID>
101405

> <Tr_1_Tst_0>
1

> <Ready_Biodeg>
1.0

$$$$
Row1371
  Mrv171c012251911052D          

 13 12  0  0  0  0            999 V2000
    1.2375   -2.1434    0.0000 C   0  0  0  0  0  0  0  0  0  0  0  0
    0.4125   -2.1434    0.0000 C   0  0  0  0  0  0  0  0  0  0  0  0
    0.0000   -1.4289    0.0000 C   0  0  0  0  0  0  0  0  0  0  0  0
   -0.8250   -1.4289    0.0000 C   0  0  0  0  0  0  0  0  0  0  0  0
   -1.2375   -0.7145    0.0000 O   0  0  0  0  0  0  0  0  0  0  0  0
   -2.0625   -0.7145    0.0000 P   0  0  0  0  0  0  0  0  0  0  0  0
   -2.0625    0.1105    0.0000 O   0  0  0  0  0  0  0  0  0  0  0  0
   -2.0625   -1.5395    0.0000 O   0  0  0  0  0  0  0  0  0  0  0  0
   -2.8875   -0.7145    0.0000 O   0  0  0  0  0  0  0  0  0  0  0  0
   -3.3000   -0.0000    0.0000 C   0  0  0  0  0  0  0  0  0  0  0  0
   -4.1250   -0.0000    0.0000 C   0  0  0  0  0  0  0  0  0  0  0  0
   -4.5375    0.7145    0.0000 C   0  0  0  0  0  0  0  0  0  0  0  0
   -5.3625    0.7145    0.0000 C   0  0  0  0  0  0  0  0  0  0  0  0
  1  2  1  0  0  0  0
  2  3  1  0  0  0  0
  3  4  1  0  0  0  0
  4  5  1  0  0  0  0
  5  6  1  0  0  0  0
  6  7  1  0  0  0  0
  6  8  2  0  0  0  0
  6  9  1  0  0  0  0
  9 10  1  0  0  0  0
 10 11  1  0  0  0  0
 11 12  1  0  0  0  0
 12 13  1  0  0  0  0
M  END
> <ChemID>
201682

> <CAS>
107-66-4

> <Original_SMILES>
CCCCOP(O)(=O)OCCCC

> <preferred_name>
Phosphoric acid, dibutyl ester

> <dsstox_substance_id>
DTXSID3040728

> <dsstox_compound_id>
DTXCID1020728

> <qc_level>


> <Canonical_QSARr>
CCCCOP(O)(=O)OCCCC

> <InChI_Code_QSARr>
InChI=1S/C8H19O4P/c1-3-5-7-11-13(9,10)12-8-6-4-2/h3-8H2,1-2H3,(H,9,10)

> <InChI Key_QSARr>
JYFHYPJRHGVZDY-UHFFFAOYSA-N

> <Salt_Solvent>


> <Salt_Solvent_ID>
0

> <MPID>
101406

> <Tr_1_Tst_0>
1

> <Ready_Biodeg>
0.0

$$$$
Row1372
  Mrv171c012251911052D          

 16 16  0  0  0  0            999 V2000
   -4.5291    2.5063    0.0000 C   0  0  0  0  0  0  0  0  0  0  0  0
   -4.5291    1.6813    0.0000 C   0  0  0  0  0  0  0  0  0  0  0  0
   -3.8146    1.2688    0.0000 C   0  0  0  0  0  0  0  0  0  0  0  0
   -3.8146    0.4438    0.0000 C   0  0  0  0  0  0  0  0  0  0  0  0
   -3.1001    0.0313    0.0000 O   0  0  0  0  0  0  0  0  0  0  0  0
   -3.1001   -0.7937    0.0000 C   0  0  0  0  0  0  0  0  0  0  0  0
   -3.8146   -1.2062    0.0000 C   0  0  0  0  0  0  0  0  0  0  0  0
   -3.8146   -2.0312    0.0000 C   0  0  0  0  0  0  0  0  0  0  0  0
   -3.1001   -2.4437    0.0000 C   0  0  0  0  0  0  0  0  0  0  0  0
   -2.3857   -2.0312    0.0000 C   0  0  0  0  0  0  0  0  0  0  0  0
   -2.3857   -1.2062    0.0000 C   0  0  0  0  0  0  0  0  0  0  0  0
   -1.6712   -0.7937    0.0000 O   0  0  0  0  0  0  0  0  0  0  0  0
   -0.9567   -1.2062    0.0000 C   0  0  0  0  0  0  0  0  0  0  0  0
   -0.2422   -0.7937    0.0000 C   0  0  0  0  0  0  0  0  0  0  0  0
    0.4722   -1.2062    0.0000 C   0  0  0  0  0  0  0  0  0  0  0  0
    1.1867   -0.7937    0.0000 C   0  0  0  0  0  0  0  0  0  0  0  0
  1  2  1  0  0  0  0
  2  3  1  0  0  0  0
  3  4  1  0  0  0  0
  4  5  1  0  0  0  0
  5  6  1  0  0  0  0
  7  6  2  0  0  0  0
  8  7  1  0  0  0  0
  9  8  2  0  0  0  0
 10  9  1  0  0  0  0
 11 10  2  0  0  0  0
  6 11  1  0  0  0  0
 11 12  1  0  0  0  0
 12 13  1  0  0  0  0
 13 14  1  0  0  0  0
 14 15  1  0  0  0  0
 15 16  1  0  0  0  0
M  END
> <ChemID>
201683

> <CAS>
20367-35-5

> <Original_SMILES>
CCCCOc1ccccc1OCCCC

> <preferred_name>


> <dsstox_substance_id>


> <dsstox_compound_id>


> <qc_level>


> <Canonical_QSARr>
CCCCOC1=CC=CC=C1OCCCC

> <InChI_Code_QSARr>
InChI=1S/C14H22O2/c1-3-5-11-15-13-9-7-8-10-14(13)16-12-6-4-2/h7-10H,3-6,11-12H2,1-2H3

> <InChI Key_QSARr>
GHKFGRVGAQYZNT-UHFFFAOYSA-N

> <Salt_Solvent>


> <Salt_Solvent_ID>
0

> <MPID>
101407

> <Tr_1_Tst_0>
1

> <Ready_Biodeg>
0.0

$$$$
Row1373
  Mrv171c012251911052D          

 12 12  0  0  0  0            999 V2000
   -2.9531   -2.7248    0.0000 C   0  0  0  0  0  0  0  0  0  0  0  0
   -2.2386   -2.3123    0.0000 C   0  0  0  0  0  0  0  0  0  0  0  0
   -2.2386   -1.4873    0.0000 C   0  0  0  0  0  0  0  0  0  0  0  0
   -1.5242   -1.0748    0.0000 C   0  0  0  0  0  0  0  0  0  0  0  0
   -1.5242   -0.2498    0.0000 C   0  0  0  0  0  0  0  0  0  0  0  0
   -0.8097    0.1627    0.0000 C   0  0  0  0  0  0  0  0  0  0  0  0
   -0.8097    0.9877    0.0000 C   0  0  0  0  0  0  0  0  0  0  0  0
   -1.5242    1.4002    0.0000 C   0  0  0  0  0  0  0  0  0  0  0  0
   -1.5242    2.2252    0.0000 C   0  0  0  0  0  0  0  0  0  0  0  0
   -2.2386    2.6377    0.0000 O   0  0  0  0  0  0  0  0  0  0  0  0
   -2.2386    0.9877    0.0000 C   0  0  0  0  0  0  0  0  0  0  0  0
   -2.2386    0.1627    0.0000 C   0  0  0  0  0  0  0  0  0  0  0  0
  1  2  1  0  0  0  0
  2  3  1  0  0  0  0
  3  4  1  0  0  0  0
  4  5  1  0  0  0  0
  6  5  2  0  0  0  0
  7  6  1  0  0  0  0
  8  7  2  0  0  0  0
  8  9  1  0  0  0  0
  9 10  2  0  0  0  0
 11  8  1  0  0  0  0
 12 11  2  0  0  0  0
  5 12  1  0  0  0  0
M  END
> <ChemID>
201688

> <CAS>
1200-14-2

> <Original_SMILES>
CCCCc1ccc(C=O)cc1

> <preferred_name>
Benzaldehyde, 4-butyl-

> <dsstox_substance_id>
DTXSID0061616

> <dsstox_compound_id>
DTXCID0033544

> <qc_level>


> <Canonical_QSARr>
CCCCC1=CC=C(C=O)C=C1

> <InChI_Code_QSARr>
InChI=1S/C11H14O/c1-2-3-4-10-5-7-11(9-12)8-6-10/h5-9H,2-4H2,1H3

> <InChI Key_QSARr>
ARIREUPIXAKDAY-UHFFFAOYSA-N

> <Salt_Solvent>


> <Salt_Solvent_ID>
0

> <MPID>
101408

> <Tr_1_Tst_0>
0

> <Ready_Biodeg>
0.0

$$$$
Row1374
  Mrv171c012251911052D          

 23 23  0  0  0  0            999 V2000
   -2.1843    2.2631    0.0000 C   0  0  0  0  0  0  0  0  0  0  0  0
   -1.7718    1.5486    0.0000 C   0  0  0  0  0  0  0  0  0  0  0  0
   -0.9468    1.5486    0.0000 C   0  0  0  0  0  0  0  0  0  0  0  0
   -0.5343    0.8341    0.0000 N   0  0  0  0  0  0  0  0  0  0  0  0
    0.2907    0.8341    0.0000 C   0  0  0  0  0  0  0  0  0  0  0  0
    0.7032    1.5486    0.0000 C   0  0  0  0  0  0  0  0  0  0  0  0
    0.2907    2.2631    0.0000 C   0  0  0  0  0  0  0  0  0  0  0  0
   -0.9468    0.1196    0.0000 C   0  0  0  0  0  0  0  0  0  0  0  0
   -1.7718    0.1196    0.0000 C   0  0  0  0  0  0  0  0  0  0  0  0
   -2.1843    0.8341    0.0000 N   0  3  0  0  0  0  0  0  0  0  0  0
   -3.0093    0.8341    0.0000 O   0  5  0  0  0  0  0  0  0  0  0  0
   -2.2705    1.6546    0.0000 O   0  0  0  0  0  0  0  0  0  0  0  0
   -2.1843   -0.5948    0.0000 C   0  0  0  0  0  0  0  0  0  0  0  0
   -1.7718   -1.3093    0.0000 C   0  0  0  0  0  0  0  0  0  0  0  0
   -2.1843   -2.0238    0.0000 C   0  0  0  0  0  0  0  0  0  0  0  0
   -2.5968   -2.7382    0.0000 F   0  0  0  0  0  0  0  0  0  0  0  0
   -2.8988   -1.6113    0.0000 F   0  0  0  0  0  0  0  0  0  0  0  0
   -1.4698   -2.4363    0.0000 F   0  0  0  0  0  0  0  0  0  0  0  0
   -0.9468   -1.3093    0.0000 C   0  0  0  0  0  0  0  0  0  0  0  0
   -0.5343   -0.5948    0.0000 C   0  0  0  0  0  0  0  0  0  0  0  0
    0.2907   -0.5948    0.0000 N   0  3  0  0  0  0  0  0  0  0  0  0
    0.7032    0.1196    0.0000 O   0  5  0  0  0  0  0  0  0  0  0  0
    0.7032   -1.3093    0.0000 O   0  0  0  0  0  0  0  0  0  0  0  0
  1  2  1  0  0  0  0
  2  3  1  0  0  0  0
  3  4  1  0  0  0  0
  4  5  1  0  0  0  0
  5  6  1  0  0  0  0
  6  7  1  0  0  0  0
  4  8  1  0  0  0  0
  9  8  2  0  0  0  0
  9 10  1  0  0  0  0
 10 11  1  0  0  0  0
 10 12  2  0  0  0  0
 13  9  1  0  0  0  0
 14 13  2  0  0  0  0
 14 15  1  0  0  0  0
 15 16  1  0  0  0  0
 15 17  1  0  0  0  0
 15 18  1  0  0  0  0
 19 14  1  0  0  0  0
 20 19  2  0  0  0  0
  8 20  1  0  0  0  0
 20 21  1  0  0  0  0
 21 22  1  0  0  0  0
 21 23  2  0  0  0  0
M  CHG  4  10   1  11  -1  21   1  22  -1
M  END
> <ChemID>
201689

> <CAS>
1582-09-8

> <Original_SMILES>
CCCN(CCC)c1c(cc(cc1[N+]([O-])=O)C(F)(F)F)[N+]([O-])=O

> <preferred_name>
Trifluralin

> <dsstox_substance_id>
DTXSID4021395

> <dsstox_compound_id>
DTXCID401395

> <qc_level>


> <Canonical_QSARr>
CCCN(CCC)C1C(=CC(=CC=1[N+]([O-])=O)C(F)(F)F)[N+]([O-])=O

> <InChI_Code_QSARr>
InChI=1S/C13H16F3N3O4/c1-3-5-17(6-4-2)12-10(18(20)21)7-9(13(14,15)16)8-11(12)19(22)23/h7-8H,3-6H2,1-2H3

> <InChI Key_QSARr>
ZSDSQXJSNMTJDA-UHFFFAOYSA-N

> <Salt_Solvent>


> <Salt_Solvent_ID>
0

> <MPID>
101409

> <Tr_1_Tst_0>
1

> <Ready_Biodeg>
0.0

$$$$
Row1375
  Mrv171c012251911052D          

 23 24  0  0  0  0            999 V2000
   -3.6862   -3.7042    0.0000 C   0  0  0  0  0  0  0  0  0  0  0  0
   -3.6862   -2.8792    0.0000 C   0  0  0  0  0  0  0  0  0  0  0  0
   -2.9717   -2.4667    0.0000 N   0  0  0  0  0  0  0  0  0  0  0  0
   -2.2572   -2.8792    0.0000 C   0  0  0  0  0  0  0  0  0  0  0  0
   -1.5427   -2.4667    0.0000 C   0  0  0  0  0  0  0  0  0  0  0  0
   -2.9717   -1.6417    0.0000 C   0  0  0  0  0  0  0  0  0  0  0  0
   -3.6862   -1.2292    0.0000 C   0  0  0  0  0  0  0  0  0  0  0  0
   -3.6862   -0.4042    0.0000 C   0  0  0  0  0  0  0  0  0  0  0  0
   -2.9717    0.0083    0.0000 C   0  0  0  0  0  0  0  0  0  0  0  0
   -2.9717    0.8333    0.0000 C   0  0  0  0  0  0  0  0  0  0  0  0
   -3.6862    1.2458    0.0000 O   0  0  0  0  0  0  0  0  0  0  0  0
   -2.2572    1.2458    0.0000 C   0  0  0  0  0  0  0  0  0  0  0  0
   -1.5427    0.8333    0.0000 C   0  0  0  0  0  0  0  0  0  0  0  0
   -0.8283    1.2458    0.0000 C   0  0  0  0  0  0  0  0  0  0  0  0
   -0.8283    2.0708    0.0000 C   0  0  0  0  0  0  0  0  0  0  0  0
   -1.5427    2.4833    0.0000 C   0  0  0  0  0  0  0  0  0  0  0  0
   -2.2572    2.0708    0.0000 C   0  0  0  0  0  0  0  0  0  0  0  0
   -2.9717    2.4833    0.0000 C   0  0  0  0  0  0  0  0  0  0  0  0
   -3.6862    2.0708    0.0000 O   0  0  0  0  0  0  0  0  0  0  0  0
   -2.9717    3.3083    0.0000 O   0  0  0  0  0  0  0  0  0  0  0  0
   -2.2572   -0.4042    0.0000 C   0  0  0  0  0  0  0  0  0  0  0  0
   -1.5427    0.0083    0.0000 O   0  0  0  0  0  0  0  0  0  0  0  0
   -2.2572   -1.2292    0.0000 C   0  0  0  0  0  0  0  0  0  0  0  0
  1  2  1  0  0  0  0
  2  3  1  0  0  0  0
  3  4  1  0  0  0  0
  4  5  1  0  0  0  0
  3  6  1  0  0  0  0
  7  6  2  0  0  0  0
  8  7  1  0  0  0  0
  9  8  2  0  0  0  0
  9 10  1  0  0  0  0
 10 11  2  0  0  0  0
 10 12  1  0  0  0  0
 13 12  2  0  0  0  0
 14 13  1  0  0  0  0
 15 14  2  0  0  0  0
 16 15  1  0  0  0  0
 17 16  2  0  0  0  0
 12 17  1  0  0  0  0
 17 18  1  0  0  0  0
 18 19  1  0  0  0  0
 18 20  2  0  0  0  0
 21  9  1  0  0  0  0
 21 22  1  0  0  0  0
 23 21  2  0  0  0  0
  6 23  1  0  0  0  0
M  END
> <ChemID>
201691

> <CAS>
5809-23-4

> <Original_SMILES>
CCN(CC)c1cc(O)c(cc1)C(=O)c1ccccc1C(O)=O

> <preferred_name>
2-[4-(Diethylamino)-2-hydroxybenzoyl]benzoic acid

> <dsstox_substance_id>
DTXSID4027604

> <dsstox_compound_id>
DTXCID507604

> <qc_level>


> <Canonical_QSARr>
CCN(CC)C1C=C(O)C(=CC=1)C(=O)C1=CC=CC=C1C(O)=O

> <InChI_Code_QSARr>
InChI=1S/C18H19NO4/c1-3-19(4-2)12-9-10-15(16(20)11-12)17(21)13-7-5-6-8-14(13)18(22)23/h5-11,20H,3-4H2,1-2H3,(H,22,23)

> <InChI Key_QSARr>
FQNKTJPBXAZUGC-UHFFFAOYSA-N

> <Salt_Solvent>


> <Salt_Solvent_ID>
0

> <MPID>
101410

> <Tr_1_Tst_0>
1

> <Ready_Biodeg>
0.0

$$$$
Row1376
  Mrv171c012251911052D          

 13 13  0  0  0  0            999 V2000
   -1.8250   -2.3248    0.0000 C   0  0  0  0  0  0  0  0  0  0  0  0
   -1.8250   -1.4998    0.0000 C   0  0  0  0  0  0  0  0  0  0  0  0
   -1.1106   -1.0873    0.0000 N   0  0  0  0  0  0  0  0  0  0  0  0
   -0.3961   -1.4998    0.0000 C   0  0  0  0  0  0  0  0  0  0  0  0
    0.3184   -1.0873    0.0000 C   0  0  0  0  0  0  0  0  0  0  0  0
   -1.1106   -0.2623    0.0000 C   0  0  0  0  0  0  0  0  0  0  0  0
   -0.3961    0.1502    0.0000 C   0  0  0  0  0  0  0  0  0  0  0  0
   -0.3961    0.9752    0.0000 C   0  0  0  0  0  0  0  0  0  0  0  0
   -1.1106    1.3877    0.0000 C   0  0  0  0  0  0  0  0  0  0  0  0
   -1.1106    2.2127    0.0000 C   0  0  0  0  0  0  0  0  0  0  0  0
   -1.8250    2.6252    0.0000 O   0  0  0  0  0  0  0  0  0  0  0  0
   -1.8250    0.9752    0.0000 C   0  0  0  0  0  0  0  0  0  0  0  0
   -1.8250    0.1502    0.0000 C   0  0  0  0  0  0  0  0  0  0  0  0
  1  2  1  0  0  0  0
  2  3  1  0  0  0  0
  3  4  1  0  0  0  0
  4  5  1  0  0  0  0
  3  6  1  0  0  0  0
  7  6  2  0  0  0  0
  8  7  1  0  0  0  0
  9  8  2  0  0  0  0
  9 10  1  0  0  0  0
 10 11  2  0  0  0  0
 12  9  1  0  0  0  0
 13 12  2  0  0  0  0
  6 13  1  0  0  0  0
M  END
> <ChemID>
201692

> <CAS>
120-21-8

> <Original_SMILES>
CCN(CC)c1ccc(C=O)cc1

> <preferred_name>
4-(Diethylamino)benzaldehyde

> <dsstox_substance_id>
DTXSID0021963

> <dsstox_compound_id>
DTXCID901963

> <qc_level>


> <Canonical_QSARr>
CCN(CC)C1C=CC(C=O)=CC=1

> <InChI_Code_QSARr>
InChI=1S/C11H15NO/c1-3-12(4-2)11-7-5-10(9-13)6-8-11/h5-9H,3-4H2,1-2H3

> <InChI Key_QSARr>
MNFZZNNFORDXSV-UHFFFAOYSA-N

> <Salt_Solvent>


> <Salt_Solvent_ID>
0

> <MPID>
101411

> <Tr_1_Tst_0>
0

> <Ready_Biodeg>
0.0

$$$$
Row1377
  Mrv171c012251911052D          

  8  7  0  0  0  0            999 V2000
   -1.3396   -0.0516    0.0000 C   0  0  0  0  0  0  0  0  0  0  0  0
   -0.6252    0.3609    0.0000 C   0  0  0  0  0  0  0  0  0  0  0  0
    0.0893   -0.0516    0.0000 N   0  0  0  0  0  0  0  0  0  0  0  0
    0.0893   -0.8766    0.0000 C   0  0  0  0  0  0  0  0  0  0  0  0
   -0.6252   -1.2891    0.0000 C   0  0  0  0  0  0  0  0  0  0  0  0
    0.8038    0.3609    0.0000 C   0  0  0  0  0  0  0  0  0  0  0  0
    1.5182   -0.0516    0.0000 C   0  0  0  0  0  0  0  0  0  0  0  0
    2.2327    0.3609    0.0000 O   0  0  0  0  0  0  0  0  0  0  0  0
  1  2  1  0  0  0  0
  2  3  1  0  0  0  0
  3  4  1  0  0  0  0
  4  5  1  0  0  0  0
  3  6  1  0  0  0  0
  6  7  1  0  0  0  0
  7  8  1  0  0  0  0
M  END
> <ChemID>
201694

> <CAS>
100-37-8

> <Original_SMILES>
CCN(CCO)CC

> <preferred_name>
N,N-Diethylethanolamine

> <dsstox_substance_id>
DTXSID5021837

> <dsstox_compound_id>
DTXCID401837

> <qc_level>


> <Canonical_QSARr>
CCN(CCO)CC

> <InChI_Code_QSARr>
InChI=1S/C6H15NO/c1-3-7(4-2)5-6-8/h8H,3-6H2,1-2H3

> <InChI Key_QSARr>
BFSVOASYOCHEOV-UHFFFAOYSA-N

> <Salt_Solvent>


> <Salt_Solvent_ID>
0

> <MPID>
101412

> <Tr_1_Tst_0>
1

> <Ready_Biodeg>
0.0

$$$$
Row1378
  Mrv171c012251911052D          

  9  8  0  0  0  0            999 V2000
    0.6351   -0.9166    0.0000 C   0  0  0  0  0  0  0  0  0  0  0  0
   -0.0794   -0.5041    0.0000 C   0  0  0  0  0  0  0  0  0  0  0  0
   -0.0794    0.3209    0.0000 N   0  0  0  0  0  0  0  0  0  0  0  0
   -0.7938    0.7334    0.0000 C   0  0  0  0  0  0  0  0  0  0  0  0
   -1.5083    0.3209    0.0000 C   0  0  0  0  0  0  0  0  0  0  0  0
   -2.2228    0.7334    0.0000 O   0  0  0  0  0  0  0  0  0  0  0  0
    0.6351    0.7334    0.0000 C   0  0  0  0  0  0  0  0  0  0  0  0
    1.3496    0.3209    0.0000 C   0  0  0  0  0  0  0  0  0  0  0  0
    2.0640    0.7334    0.0000 O   0  0  0  0  0  0  0  0  0  0  0  0
  1  2  1  0  0  0  0
  2  3  1  0  0  0  0
  3  4  1  0  0  0  0
  4  5  1  0  0  0  0
  5  6  1  0  0  0  0
  3  7  1  0  0  0  0
  7  8  1  0  0  0  0
  8  9  1  0  0  0  0
M  END
> <ChemID>
201695

> <CAS>
139-87-7

> <Original_SMILES>
CCN(CCO)CCO

> <preferred_name>
Ethyl diethanolamine

> <dsstox_substance_id>
DTXSID8041955

> <dsstox_compound_id>
DTXCID6021955

> <qc_level>


> <Canonical_QSARr>
CCN(CCO)CCO

> <InChI_Code_QSARr>
InChI=1S/C6H15NO2/c1-2-7(3-5-8)4-6-9/h8-9H,2-6H2,1H3

> <InChI Key_QSARr>
AKNUHUCEWALCOI-UHFFFAOYSA-N

> <Salt_Solvent>


> <Salt_Solvent_ID>
0

> <MPID>
101413

> <Tr_1_Tst_0>
1

> <Ready_Biodeg>
0.0

$$$$
Row1379
  Mrv171c012251911052D          

  6  5  0  0  0  0            999 V2000
    1.9520   -0.8520    0.0000 C   0  0  0  0  0  0  0  0  0  0  0  0
    1.5395   -0.1375    0.0000 C   0  0  0  0  0  0  0  0  0  0  0  0
    0.7145   -0.1375    0.0000 N   0  0  0  0  0  0  0  0  0  0  0  0
    0.3020   -0.8520    0.0000 O   0  0  0  0  0  0  0  0  0  0  0  0
    0.3020    0.5770    0.0000 C   0  0  0  0  0  0  0  0  0  0  0  0
   -0.5230    0.5770    0.0000 C   0  0  0  0  0  0  0  0  0  0  0  0
  1  2  1  0  0  0  0
  2  3  1  0  0  0  0
  3  4  1  0  0  0  0
  3  5  1  0  0  0  0
  5  6  1  0  0  0  0
M  END
> <ChemID>
201696

> <CAS>
3710-84-7

> <Original_SMILES>
CCN(O)CC

> <preferred_name>
N,N-Diethylhydroxylamine

> <dsstox_substance_id>
DTXSID2027543

> <dsstox_compound_id>
DTXCID107543

> <qc_level>


> <Canonical_QSARr>
CCN(O)CC

> <InChI_Code_QSARr>
InChI=1S/C4H11NO/c1-3-5(6)4-2/h6H,3-4H2,1-2H3

> <InChI Key_QSARr>
FVCOIAYSJZGECG-UHFFFAOYSA-N

> <Salt_Solvent>


> <Salt_Solvent_ID>
0

> <MPID>
101414

> <Tr_1_Tst_0>
0

> <Ready_Biodeg>
0.0

$$$$
Row1380
  Mrv171c012251911052D          

  8  8  0  0  0  0            999 V2000
    0.3158    1.5985    0.0000 C   0  0  0  0  0  0  0  0  0  0  0  0
   -0.3987    1.1860    0.0000 C   0  0  0  0  0  0  0  0  0  0  0  0
   -0.3987    0.3610    0.0000 N   0  0  0  0  0  0  0  0  0  0  0  0
   -1.1131   -0.0515    0.0000 C   0  0  0  0  0  0  0  0  0  0  0  0
   -1.1131   -0.8765    0.0000 C   0  0  0  0  0  0  0  0  0  0  0  0
   -0.3987   -1.2890    0.0000 O   0  0  0  0  0  0  0  0  0  0  0  0
    0.3158   -0.8765    0.0000 C   0  0  0  0  0  0  0  0  0  0  0  0
    0.3158   -0.0515    0.0000 C   0  0  0  0  0  0  0  0  0  0  0  0
  1  2  1  0  0  0  0
  2  3  1  0  0  0  0
  4  3  1  0  0  0  0
  5  4  1  0  0  0  0
  6  5  1  0  0  0  0
  7  6  1  0  0  0  0
  8  7  1  0  0  0  0
  3  8  1  0  0  0  0
M  END
> <ChemID>
201697

> <CAS>
100-74-3

> <Original_SMILES>
CCN1CCOCC1

> <preferred_name>
N-Ethylmorpholine

> <dsstox_substance_id>
DTXSID5025312

> <dsstox_compound_id>
DTXCID205312

> <qc_level>


> <Canonical_QSARr>
CCN1CCOCC1

> <InChI_Code_QSARr>
InChI=1S/C6H13NO/c1-2-7-3-5-8-6-4-7/h2-6H2,1H3

> <InChI Key_QSARr>
HVCNXQOWACZAFN-UHFFFAOYSA-N

> <Salt_Solvent>


> <Salt_Solvent_ID>
0

> <MPID>
101415

> <Tr_1_Tst_0>
1

> <Ready_Biodeg>
0.0

$$$$
Row1381
  Mrv171c012251911052D          

 15 15  0  0  0  0            999 V2000
   -0.1498   -1.4983    0.0000 C   0  0  0  0  0  0  0  0  0  0  0  0
   -0.8643   -1.0858    0.0000 C   0  0  0  0  0  0  0  0  0  0  0  0
   -0.8643   -0.2608    0.0000 N   0  0  0  0  0  0  0  0  0  0  0  0
   -1.5788    0.1517    0.0000 C   0  0  0  0  0  0  0  0  0  0  0  0
   -1.5788    0.9767    0.0000 N   0  0  0  0  0  0  0  0  0  0  0  0
   -2.2932    1.3892    0.0000 C   0  0  0  0  0  0  0  0  0  0  0  0
   -2.2932    2.2142    0.0000 N   0  0  0  0  0  0  0  0  0  0  0  0
   -1.5788    2.6267    0.0000 C   0  0  0  0  0  0  0  0  0  0  0  0
   -1.5788    3.4517    0.0000 C   0  0  0  0  0  0  0  0  0  0  0  0
   -0.8643    2.2142    0.0000 C   0  0  0  0  0  0  0  0  0  0  0  0
   -3.0077    0.9767    0.0000 N   0  0  0  0  0  0  0  0  0  0  0  0
   -3.0077    0.1517    0.0000 C   0  0  0  0  0  0  0  0  0  0  0  0
   -3.7222   -0.2608    0.0000 S   0  0  0  0  0  0  0  0  0  0  0  0
   -3.7222   -1.0858    0.0000 C   0  0  0  0  0  0  0  0  0  0  0  0
   -2.2932   -0.2608    0.0000 N   0  0  0  0  0  0  0  0  0  0  0  0
  1  2  1  0  0  0  0
  2  3  1  0  0  0  0
  3  4  1  0  0  0  0
  5  4  2  0  0  0  0
  6  5  1  0  0  0  0
  6  7  1  0  0  0  0
  7  8  1  0  0  0  0
  8  9  1  0  0  0  0
  8 10  1  0  0  0  0
 11  6  2  0  0  0  0
 12 11  1  0  0  0  0
 12 13  1  0  0  0  0
 13 14  1  0  0  0  0
 15 12  2  0  0  0  0
  4 15  1  0  0  0  0
M  END
> <ChemID>
201701

> <CAS>
834-12-8

> <Original_SMILES>
CCNc1[n]c(NC(C)C)[n]c([n]1)SC

> <preferred_name>
Ametryn

> <dsstox_substance_id>
DTXSID1023869

> <dsstox_compound_id>
DTXCID303869

> <qc_level>


> <Canonical_QSARr>
CCNC1N=C(N=C(NC(C)C)N=1)SC

> <InChI_Code_QSARr>
InChI=1S/C9H17N5S/c1-5-10-7-12-8(11-6(2)3)14-9(13-7)15-4/h6H,5H2,1-4H3,(H2,10,11,12,13,14)

> <InChI Key_QSARr>
RQVYBGPQFYCBGX-UHFFFAOYSA-N

> <Salt_Solvent>


> <Salt_Solvent_ID>
0

> <MPID>
101416

> <Tr_1_Tst_0>
1

> <Ready_Biodeg>
0.0

$$$$
Row1382
  Mrv171c012251911052D          

 10  9  0  0  0  0            999 V2000
   -4.2869    0.0000    0.0000 C   0  0  0  0  0  0  0  0  0  0  0  0
   -3.5725    0.4125    0.0000 C   0  0  0  0  0  0  0  0  0  0  0  0
   -2.8580    0.0000    0.0000 O   0  0  0  0  0  0  0  0  0  0  0  0
   -2.1435    0.4125    0.0000 C   0  0  0  0  0  0  0  0  0  0  0  0
   -2.1435    1.2375    0.0000 O   0  0  0  0  0  0  0  0  0  0  0  0
   -1.4291    0.0000    0.0000 C   0  0  0  0  0  0  0  0  0  0  0  0
   -1.4291   -0.8250    0.0000 O   0  0  0  0  0  0  0  0  0  0  0  0
   -0.7146    0.4125    0.0000 O   0  0  0  0  0  0  0  0  0  0  0  0
   -0.0001    0.0000    0.0000 C   0  0  0  0  0  0  0  0  0  0  0  0
    0.7144    0.4125    0.0000 C   0  0  0  0  0  0  0  0  0  0  0  0
  1  2  1  0  0  0  0
  2  3  1  0  0  0  0
  3  4  1  0  0  0  0
  4  5  2  0  0  0  0
  4  6  1  0  0  0  0
  6  7  2  0  0  0  0
  6  8  1  0  0  0  0
  8  9  1  0  0  0  0
  9 10  1  0  0  0  0
M  END
> <ChemID>
201705

> <CAS>
95-92-1

> <Original_SMILES>
CCOC(=O)C(=O)OCC

> <preferred_name>
Diethyl oxalate

> <dsstox_substance_id>
DTXSID2044472

> <dsstox_compound_id>
DTXCID0024472

> <qc_level>


> <Canonical_QSARr>
CCOC(=O)C(=O)OCC

> <InChI_Code_QSARr>
InChI=1S/C6H10O4/c1-3-9-5(7)6(8)10-4-2/h3-4H2,1-2H3

> <InChI Key_QSARr>
WYACBZDAHNBPPB-UHFFFAOYSA-N

> <Salt_Solvent>


> <Salt_Solvent_ID>
0

> <MPID>
101417

> <Tr_1_Tst_0>
1

> <Ready_Biodeg>
1.0

$$$$
Row1383
  Mrv171c012251911052D          

 12 11  0  0  0  0            999 V2000
    3.3000    1.4289    0.0000 C   0  0  0  0  0  0  0  0  0  0  0  0
    2.4750    1.4289    0.0000 C   0  0  0  0  0  0  0  0  0  0  0  0
    2.0625    0.7145    0.0000 O   0  0  0  0  0  0  0  0  0  0  0  0
    1.2375    0.7145    0.0000 C   0  0  0  0  0  0  0  0  0  0  0  0
    0.8250    1.4289    0.0000 O   0  0  0  0  0  0  0  0  0  0  0  0
    0.8250    0.0000    0.0000 C   0  0  0  0  0  0  0  0  0  0  0  0
    0.0000    0.0000    0.0000 C   0  0  0  0  0  0  0  0  0  0  0  0
   -0.4125   -0.7145    0.0000 C   0  0  0  0  0  0  0  0  0  0  0  0
   -1.2375   -0.7145    0.0000 O   0  0  0  0  0  0  0  0  0  0  0  0
    0.0000   -1.4289    0.0000 O   0  0  0  0  0  0  0  0  0  0  0  0
   -0.4125   -2.1434    0.0000 C   0  0  0  0  0  0  0  0  0  0  0  0
    0.0000   -2.8579    0.0000 C   0  0  0  0  0  0  0  0  0  0  0  0
  1  2  1  0  0  0  0
  2  3  1  0  0  0  0
  3  4  1  0  0  0  0
  4  5  2  0  0  0  0
  6  4  1  4  0  0  0
  6  7  2  0  0  0  0
  7  8  1  0  0  0  0
  8  9  2  0  0  0  0
  8 10  1  0  0  0  0
 10 11  1  0  0  0  0
 11 12  1  0  0  0  0
M  END
> <ChemID>
201710

> <CAS>
623-91-6

> <Original_SMILES>
CCOC(=O)/C=C/C(=O)OCC

> <preferred_name>
Diethyl (2E)-but-2-enedioate

> <dsstox_substance_id>
DTXSID7027253

> <dsstox_compound_id>
DTXCID807253

> <qc_level>


> <Canonical_QSARr>
CCOC(=O)C=CC(=O)OCC

> <InChI_Code_QSARr>
InChI=1S/C8H12O4/c1-3-11-7(9)5-6-8(10)12-4-2/h5-6H,3-4H2,1-2H3

> <InChI Key_QSARr>
IEPRKVQEAMIZSS-UHFFFAOYSA-N

> <Salt_Solvent>


> <Salt_Solvent_ID>
0

> <MPID>
101418

> <Tr_1_Tst_0>
1

> <Ready_Biodeg>
1.0

$$$$
Row1384
  Mrv171c012251911052D          

  8  7  0  0  0  0            999 V2000
   -3.4840   -0.9484    0.0000 C   0  0  0  0  0  0  0  0  0  0  0  0
   -2.7696   -0.5359    0.0000 C   0  0  0  0  0  0  0  0  0  0  0  0
   -2.0551   -0.9484    0.0000 O   0  0  0  0  0  0  0  0  0  0  0  0
   -1.3406   -0.5359    0.0000 C   0  0  0  0  0  0  0  0  0  0  0  0
   -1.3406    0.2891    0.0000 O   0  0  0  0  0  0  0  0  0  0  0  0
   -0.6262   -0.9484    0.0000 C   0  0  0  0  0  0  0  0  0  0  0  0
    0.0883   -0.5359    0.0000 C   0  0  0  0  0  0  0  0  0  0  0  0
    0.8028   -0.1234    0.0000 N   0  0  0  0  0  0  0  0  0  0  0  0
  1  2  1  0  0  0  0
  2  3  1  0  0  0  0
  3  4  1  0  0  0  0
  4  5  2  0  0  0  0
  4  6  1  0  0  0  0
  6  7  1  0  0  0  0
  7  8  3  0  0  0  0
M  END
> <ChemID>
201711

> <CAS>
105-56-6

> <Original_SMILES>
CCOC(=O)CC#N

> <preferred_name>
Ethyl cyanoacetate

> <dsstox_substance_id>
DTXSID9026718

> <dsstox_compound_id>
DTXCID506718

> <qc_level>


> <Canonical_QSARr>
CCOC(=O)CC#N

> <InChI_Code_QSARr>
InChI=1S/C5H7NO2/c1-2-8-5(7)3-4-6/h2-3H2,1H3

> <InChI Key_QSARr>
ZIUSEGSNTOUIPT-UHFFFAOYSA-N

> <Salt_Solvent>


> <Salt_Solvent_ID>
0

> <MPID>
101419

> <Tr_1_Tst_0>
1

> <Ready_Biodeg>
1.0

$$$$
Row1385
  Mrv171c012251911052D          

 11 10  0  0  0  0            999 V2000
   -2.8579    0.3750    0.0000 C   0  0  0  0  0  0  0  0  0  0  0  0
   -2.1434   -0.0375    0.0000 C   0  0  0  0  0  0  0  0  0  0  0  0
   -1.4289    0.3750    0.0000 O   0  0  0  0  0  0  0  0  0  0  0  0
   -0.7145   -0.0375    0.0000 C   0  0  0  0  0  0  0  0  0  0  0  0
   -0.7145   -0.8625    0.0000 O   0  0  0  0  0  0  0  0  0  0  0  0
   -0.0000    0.3750    0.0000 C   0  0  0  0  0  0  0  0  0  0  0  0
    0.7145   -0.0375    0.0000 C   0  0  0  0  0  0  0  0  0  0  0  0
    0.7145   -0.8625    0.0000 O   0  0  0  0  0  0  0  0  0  0  0  0
    1.4289    0.3750    0.0000 O   0  0  0  0  0  0  0  0  0  0  0  0
    2.1434   -0.0375    0.0000 C   0  0  0  0  0  0  0  0  0  0  0  0
    2.8579    0.3750    0.0000 C   0  0  0  0  0  0  0  0  0  0  0  0
  1  2  1  0  0  0  0
  2  3  1  0  0  0  0
  3  4  1  0  0  0  0
  4  5  2  0  0  0  0
  4  6  1  0  0  0  0
  6  7  1  0  0  0  0
  7  8  2  0  0  0  0
  7  9  1  0  0  0  0
  9 10  1  0  0  0  0
 10 11  1  0  0  0  0
M  END
> <ChemID>
201712

> <CAS>
105-53-3

> <Original_SMILES>
CCOC(=O)CC(=O)OCC

> <preferred_name>
Diethyl propanedioate

> <dsstox_substance_id>
DTXSID7021863

> <dsstox_compound_id>
DTXCID701863

> <qc_level>


> <Canonical_QSARr>
CCOC(=O)CC(=O)OCC

> <InChI_Code_QSARr>
InChI=1S/C7H12O4/c1-3-10-6(8)5-7(9)11-4-2/h3-5H2,1-2H3

> <InChI Key_QSARr>
IYXGSMUGOJNHAZ-UHFFFAOYSA-N

> <Salt_Solvent>


> <Salt_Solvent_ID>
0

> <MPID>
101420

> <Tr_1_Tst_0>
0

> <Ready_Biodeg>
1.0

$$$$
Row1386
  Mrv171c012251911052D          

 16 16  0  0  0  0            999 V2000
   -0.1763   -3.1402    0.0000 C   0  0  0  0  0  0  0  0  0  0  0  0
    0.5382   -2.7277    0.0000 C   0  0  0  0  0  0  0  0  0  0  0  0
    0.5382   -1.9027    0.0000 O   0  0  0  0  0  0  0  0  0  0  0  0
    1.2527   -1.4902    0.0000 C   0  0  0  0  0  0  0  0  0  0  0  0
    1.9671   -1.9027    0.0000 O   0  0  0  0  0  0  0  0  0  0  0  0
    1.2527   -0.6652    0.0000 C   0  0  0  0  0  0  0  0  0  0  0  0
    1.9671   -0.2527    0.0000 C   0  0  0  0  0  0  0  0  0  0  0  0
    1.9671    0.5723    0.0000 C   0  0  0  0  0  0  0  0  0  0  0  0
    1.2527    0.9848    0.0000 C   0  0  0  0  0  0  0  0  0  0  0  0
    1.2527    1.8098    0.0000 N   0  0  0  0  0  0  0  0  0  0  0  0
    0.5382    2.2223    0.0000 C   0  0  0  0  0  0  0  0  0  0  0  0
   -0.1763    1.8098    0.0000 O   0  0  0  0  0  0  0  0  0  0  0  0
    0.5382    3.0473    0.0000 C   0  0  0  0  0  0  0  0  0  0  0  0
   -0.1763    3.4598    0.0000 Cl  0  0  0  0  0  0  0  0  0  0  0  0
    0.5382    0.5723    0.0000 C   0  0  0  0  0  0  0  0  0  0  0  0
    0.5382   -0.2527    0.0000 C   0  0  0  0  0  0  0  0  0  0  0  0
  1  2  1  0  0  0  0
  2  3  1  0  0  0  0
  3  4  1  0  0  0  0
  4  5  2  0  0  0  0
  4  6  1  0  0  0  0
  7  6  2  0  0  0  0
  8  7  1  0  0  0  0
  9  8  2  0  0  0  0
  9 10  1  0  0  0  0
 10 11  1  0  0  0  0
 11 12  2  0  0  0  0
 11 13  1  0  0  0  0
 13 14  1  0  0  0  0
 15  9  1  0  0  0  0
 16 15  2  0  0  0  0
  6 16  1  0  0  0  0
M  END
> <ChemID>
201715

> <CAS>
26226-72-2

> <Original_SMILES>
CCOC(=O)c1ccc(cc1)NC(=O)CCl

> <preferred_name>
ethyl 4-[(chloroacetyl)amino]benzoate

> <dsstox_substance_id>
DTXSID10288175

> <dsstox_compound_id>
DTXCID90239322

> <qc_level>


> <Canonical_QSARr>
CCOC(=O)C1C=CC(=CC=1)NC(=O)CCl

> <InChI_Code_QSARr>
InChI=1S/C11H12ClNO3/c1-2-16-11(15)8-3-5-9(6-4-8)13-10(14)7-12/h3-6H,2,7H2,1H3,(H,13,14)

> <InChI Key_QSARr>
ZVRJEYAQESBSSH-UHFFFAOYSA-N

> <Salt_Solvent>


> <Salt_Solvent_ID>
0

> <MPID>
101421

> <Tr_1_Tst_0>
1

> <Ready_Biodeg>
1.0

$$$$
Row1387
  Mrv171c012251911052D          

  6  5  0  0  0  0            999 V2000
   -0.3438    1.0717    0.0000 C   0  0  0  0  0  0  0  0  0  0  0  0
   -0.7563    0.3572    0.0000 C   0  0  0  0  0  0  0  0  0  0  0  0
   -0.3438   -0.3572    0.0000 O   0  0  0  0  0  0  0  0  0  0  0  0
   -0.7563   -1.0717    0.0000 C   0  0  0  0  0  0  0  0  0  0  0  0
   -0.3438   -1.7862    0.0000 N   0  0  0  0  0  0  0  0  0  0  0  0
   -1.5813   -1.0717    0.0000 O   0  0  0  0  0  0  0  0  0  0  0  0
  1  2  1  0  0  0  0
  2  3  1  0  0  0  0
  3  4  1  0  0  0  0
  4  5  1  0  0  0  0
  4  6  2  0  0  0  0
M  END
> <ChemID>
201718

> <CAS>
51-79-6

> <Original_SMILES>
CCOC(N)=O

> <preferred_name>
Urethane

> <dsstox_substance_id>
DTXSID9021427

> <dsstox_compound_id>
DTXCID301427

> <qc_level>


> <Canonical_QSARr>
CCOC(N)=O

> <InChI_Code_QSARr>
InChI=1S/C3H7NO2/c1-2-6-3(4)5/h2H2,1H3,(H2,4,5)

> <InChI Key_QSARr>
JOYRKODLDBILNP-UHFFFAOYSA-N

> <Salt_Solvent>


> <Salt_Solvent_ID>
0

> <MPID>
101422

> <Tr_1_Tst_0>
1

> <Ready_Biodeg>
0.0

$$$$
Row1388
  Mrv171c012251911052D          

 12 11  0  0  0  0            999 V2000
   -4.2868   -0.4125    0.0000 C   0  0  0  0  0  0  0  0  0  0  0  0
   -3.5724    0.0000    0.0000 C   0  0  0  0  0  0  0  0  0  0  0  0
   -2.8579   -0.4125    0.0000 O   0  0  0  0  0  0  0  0  0  0  0  0
   -2.1434    0.0000    0.0000 C   0  0  0  0  0  0  0  0  0  0  0  0
   -1.4289   -0.4125    0.0000 C   0  0  0  0  0  0  0  0  0  0  0  0
   -0.7145    0.0000    0.0000 O   0  0  0  0  0  0  0  0  0  0  0  0
   -0.0000   -0.4125    0.0000 C   0  0  0  0  0  0  0  0  0  0  0  0
    0.7145    0.0000    0.0000 C   0  0  0  0  0  0  0  0  0  0  0  0
    1.4289   -0.4125    0.0000 O   0  0  0  0  0  0  0  0  0  0  0  0
    2.1434    0.0000    0.0000 C   0  0  0  0  0  0  0  0  0  0  0  0
    2.8579   -0.4125    0.0000 C   0  0  0  0  0  0  0  0  0  0  0  0
    3.5724    0.0000    0.0000 O   0  0  0  0  0  0  0  0  0  0  0  0
  1  2  1  0  0  0  0
  2  3  1  0  0  0  0
  3  4  1  0  0  0  0
  4  5  1  0  0  0  0
  5  6  1  0  0  0  0
  6  7  1  0  0  0  0
  7  8  1  0  0  0  0
  8  9  1  0  0  0  0
  9 10  1  0  0  0  0
 10 11  1  0  0  0  0
 11 12  1  0  0  0  0
M  END
> <ChemID>
201722

> <CAS>
112-50-5

> <Original_SMILES>
CCOCCOCCOCCO

> <preferred_name>
2-[2-(2-Ethoxyethoxy)ethoxy]ethanol

> <dsstox_substance_id>
DTXSID3024368

> <dsstox_compound_id>
DTXCID004368

> <qc_level>


> <Canonical_QSARr>
CCOCCOCCOCCO

> <InChI_Code_QSARr>
InChI=1S/C8H18O4/c1-2-10-5-6-12-8-7-11-4-3-9/h9H,2-8H2,1H3

> <InChI Key_QSARr>
WFSMVVDJSNMRAR-UHFFFAOYSA-N

> <Salt_Solvent>


> <Salt_Solvent_ID>
0

> <MPID>
101423

> <Tr_1_Tst_0>
1

> <Ready_Biodeg>
1.0

$$$$
Row1389
  Mrv171c012251911052D          

 20 21  0  0  0  0            999 V2000
    2.0146    0.2633    0.0000 C   0  0  0  0  0  0  0  0  0  0  0  0
    1.6021   -0.4512    0.0000 C   0  0  0  0  0  0  0  0  0  0  0  0
    0.7771   -0.4512    0.0000 O   0  0  0  0  0  0  0  0  0  0  0  0
    0.3646   -1.1657    0.0000 P   0  0  0  0  0  0  0  0  0  0  0  0
   -0.0479   -1.8801    0.0000 S   0  0  0  0  0  0  0  0  0  0  0  0
   -0.3498   -0.7532    0.0000 O   0  0  0  0  0  0  0  0  0  0  0  0
   -0.3498    0.0718    0.0000 C   0  0  0  0  0  0  0  0  0  0  0  0
    0.3646    0.4843    0.0000 C   0  0  0  0  0  0  0  0  0  0  0  0
    0.3646    1.3093    0.0000 C   0  0  0  0  0  0  0  0  0  0  0  0
   -0.3498    1.7218    0.0000 C   0  0  0  0  0  0  0  0  0  0  0  0
   -0.3498    2.5468    0.0000 Cl  0  0  0  0  0  0  0  0  0  0  0  0
   -1.0643    1.3093    0.0000 C   0  0  0  0  0  0  0  0  0  0  0  0
   -1.0643    0.4843    0.0000 C   0  0  0  0  0  0  0  0  0  0  0  0
   -1.7788    0.0718    0.0000 Cl  0  0  0  0  0  0  0  0  0  0  0  0
    1.0791   -1.5782    0.0000 C   0  0  0  0  0  0  0  0  0  0  0  0
    1.0791   -2.4032    0.0000 C   0  0  0  0  0  0  0  0  0  0  0  0
    1.7936   -2.8157    0.0000 C   0  0  0  0  0  0  0  0  0  0  0  0
    2.5080   -2.4032    0.0000 C   0  0  0  0  0  0  0  0  0  0  0  0
    2.5080   -1.5782    0.0000 C   0  0  0  0  0  0  0  0  0  0  0  0
    1.7936   -1.1657    0.0000 C   0  0  0  0  0  0  0  0  0  0  0  0
  1  2  1  0  0  0  0
  2  3  1  0  0  0  0
  3  4  1  0  0  0  0
  4  5  2  0  0  0  0
  4  6  1  0  0  0  0
  6  7  1  0  0  0  0
  8  7  2  0  0  0  0
  9  8  1  0  0  0  0
 10  9  2  0  0  0  0
 10 11  1  0  0  0  0
 12 10  1  0  0  0  0
 13 12  2  0  0  0  0
  7 13  1  0  0  0  0
 13 14  1  0  0  0  0
  4 15  1  0  0  0  0
 16 15  2  0  0  0  0
 17 16  1  0  0  0  0
 18 17  2  0  0  0  0
 19 18  1  0  0  0  0
 20 19  2  0  0  0  0
 15 20  1  0  0  0  0
M  END
> <ChemID>
201726

> <CAS>
3792-59-4

> <Original_SMILES>
CCOP(=S)(Oc1ccc(Cl)cc1Cl)c1ccccc1

> <preferred_name>
O-(2,4-Dichlorophenyl) O-ethyl phenylphosphonothioate

> <dsstox_substance_id>
DTXSID7042221

> <dsstox_compound_id>
DTXCID5022221

> <qc_level>


> <Canonical_QSARr>
CCOP(=S)(OC1=CC=C(Cl)C=C1Cl)C1C=CC=CC=1

> <InChI_Code_QSARr>
InChI=1S/C14H13Cl2O2PS/c1-2-17-19(20,12-6-4-3-5-7-12)18-14-9-8-11(15)10-13(14)16/h3-10H,2H2,1H3

> <InChI Key_QSARr>
PNAAEIYEUKNTMO-UHFFFAOYSA-N

> <Salt_Solvent>


> <Salt_Solvent_ID>
0

> <MPID>
101424

> <Tr_1_Tst_0>
1

> <Ready_Biodeg>
0.0

$$$$
Row1390
  Mrv171c012251911052D          

 14 13  0  0  0  0            999 V2000
    2.1161    1.5933    0.0000 C   0  0  0  0  0  0  0  0  0  0  0  0
    1.4016    1.1808    0.0000 C   0  0  0  0  0  0  0  0  0  0  0  0
    1.4016    0.3558    0.0000 O   0  0  0  0  0  0  0  0  0  0  0  0
    0.6871   -0.0567    0.0000 Si  0  0  0  0  0  0  0  0  0  0  0  0
   -0.0273   -0.4692    0.0000 C   0  0  0  0  0  0  0  0  0  0  0  0
   -0.7418   -0.0567    0.0000 C   0  0  0  0  0  0  0  0  0  0  0  0
   -1.4563   -0.4692    0.0000 C   0  0  0  0  0  0  0  0  0  0  0  0
   -1.4563   -1.2942    0.0000 N   0  0  0  0  0  0  0  0  0  0  0  0
    0.2746    0.6578    0.0000 O   0  0  0  0  0  0  0  0  0  0  0  0
   -0.5504    0.6578    0.0000 C   0  0  0  0  0  0  0  0  0  0  0  0
   -0.9629    1.3722    0.0000 C   0  0  0  0  0  0  0  0  0  0  0  0
    1.0996   -0.7712    0.0000 O   0  0  0  0  0  0  0  0  0  0  0  0
    0.6871   -1.4856    0.0000 C   0  0  0  0  0  0  0  0  0  0  0  0
   -0.1379   -1.4856    0.0000 C   0  0  0  0  0  0  0  0  0  0  0  0
  1  2  1  0  0  0  0
  2  3  1  0  0  0  0
  3  4  1  0  0  0  0
  4  5  1  0  0  0  0
  5  6  1  0  0  0  0
  6  7  1  0  0  0  0
  7  8  1  0  0  0  0
  4  9  1  0  0  0  0
  9 10  1  0  0  0  0
 10 11  1  0  0  0  0
  4 12  1  0  0  0  0
 12 13  1  0  0  0  0
 13 14  1  0  0  0  0
M  END
> <ChemID>
201729

> <CAS>
919-30-2

> <Original_SMILES>
CCO[Si](CCCN)(OCC)OCC

> <preferred_name>
3-Aminopropyltriethoxysilane

> <dsstox_substance_id>
DTXSID2027333

> <dsstox_compound_id>
DTXCID407333

> <qc_level>


> <Canonical_QSARr>
CCO[Si](CCCN)(OCC)OCC

> <InChI_Code_QSARr>
InChI=1S/C9H23NO3Si/c1-4-11-14(12-5-2,13-6-3)9-7-8-10/h4-10H2,1-3H3

> <InChI Key_QSARr>
WYTZZXDRDKSJID-UHFFFAOYSA-N

> <Salt_Solvent>


> <Salt_Solvent_ID>
0

> <MPID>
101425

> <Tr_1_Tst_0>
1

> <Ready_Biodeg>
0.0

$$$$
Row1391
  Mrv171c012251911052D          

 12 12  0  0  0  0            999 V2000
    1.5480   -2.3375    0.0000 C   0  0  0  0  0  0  0  0  0  0  0  0
    0.8335   -1.9250    0.0000 C   0  0  0  0  0  0  0  0  0  0  0  0
    0.8335   -1.1000    0.0000 O   0  0  0  0  0  0  0  0  0  0  0  0
    0.1191   -0.6875    0.0000 C   0  0  0  0  0  0  0  0  0  0  0  0
    0.1191    0.1375    0.0000 C   0  0  0  0  0  0  0  0  0  0  0  0
   -0.5954    0.5500    0.0000 C   0  0  0  0  0  0  0  0  0  0  0  0
   -0.5954    1.3750    0.0000 C   0  0  0  0  0  0  0  0  0  0  0  0
   -1.3099    1.7875    0.0000 O   0  0  0  0  0  0  0  0  0  0  0  0
   -1.3099    0.1375    0.0000 C   0  0  0  0  0  0  0  0  0  0  0  0
   -1.3099   -0.6875    0.0000 C   0  0  0  0  0  0  0  0  0  0  0  0
   -0.5954   -1.1000    0.0000 C   0  0  0  0  0  0  0  0  0  0  0  0
   -0.5954   -1.9250    0.0000 O   0  0  0  0  0  0  0  0  0  0  0  0
  1  2  1  0  0  0  0
  2  3  1  0  0  0  0
  3  4  1  0  0  0  0
  5  4  2  0  0  0  0
  6  5  1  0  0  0  0
  6  7  1  0  0  0  0
  7  8  2  0  0  0  0
  9  6  2  0  0  0  0
 10  9  1  0  0  0  0
 11 10  2  0  0  0  0
  4 11  1  0  0  0  0
 11 12  1  0  0  0  0
M  END
> <ChemID>
201730

> <CAS>
121-32-4

> <Original_SMILES>
CCOc1cc(C=O)ccc1O

> <preferred_name>
3-Ethoxy-4-hydroxybenzaldehyde

> <dsstox_substance_id>
DTXSID5021968

> <dsstox_compound_id>
DTXCID901968

> <qc_level>


> <Canonical_QSARr>
CCOC1=CC(C=O)=CC=C1O

> <InChI_Code_QSARr>
InChI=1S/C9H10O3/c1-2-12-9-5-7(6-10)3-4-8(9)11/h3-6,11H,2H2,1H3

> <InChI Key_QSARr>
CBOQJANXLMLOSS-UHFFFAOYSA-N

> <Salt_Solvent>


> <Salt_Solvent_ID>
0

> <MPID>
101426

> <Tr_1_Tst_0>
1

> <Ready_Biodeg>
1.0

$$$$
Row1392
  Mrv171c012251911052D          

  9  9  0  0  0  0            999 V2000
   -1.1851   -1.8333    0.0000 C   0  0  0  0  0  0  0  0  0  0  0  0
   -0.4706   -1.4208    0.0000 C   0  0  0  0  0  0  0  0  0  0  0  0
   -0.4706   -0.5958    0.0000 C   0  0  0  0  0  0  0  0  0  0  0  0
    0.2439   -0.1833    0.0000 C   0  0  0  0  0  0  0  0  0  0  0  0
    0.2439    0.6417    0.0000 C   0  0  0  0  0  0  0  0  0  0  0  0
   -0.4706    1.0542    0.0000 C   0  0  0  0  0  0  0  0  0  0  0  0
   -0.4706    1.8792    0.0000 O   0  0  0  0  0  0  0  0  0  0  0  0
   -1.1851    0.6417    0.0000 C   0  0  0  0  0  0  0  0  0  0  0  0
   -1.1851   -0.1833    0.0000 C   0  0  0  0  0  0  0  0  0  0  0  0
  1  2  1  0  0  0  0
  2  3  1  0  0  0  0
  4  3  2  0  0  0  0
  5  4  1  0  0  0  0
  6  5  2  0  0  0  0
  6  7  1  0  0  0  0
  8  6  1  0  0  0  0
  9  8  2  0  0  0  0
  3  9  1  0  0  0  0
M  END
> <ChemID>
201735

> <CAS>
123-07-9

> <Original_SMILES>
CCc1ccc(O)cc1

> <preferred_name>
4-Ethylphenol

> <dsstox_substance_id>
DTXSID4021977

> <dsstox_compound_id>
DTXCID801977

> <qc_level>


> <Canonical_QSARr>
CCC1C=CC(O)=CC=1

> <InChI_Code_QSARr>
InChI=1S/C8H10O/c1-2-7-3-5-8(9)6-4-7/h3-6,9H,2H2,1H3

> <InChI Key_QSARr>
HXDOZKJGKXYMEW-UHFFFAOYSA-N

> <Salt_Solvent>


> <Salt_Solvent_ID>
0

> <MPID>
101427

> <Tr_1_Tst_0>
1

> <Ready_Biodeg>
1.0

$$$$
Row1393
  Mrv171c012251911052D          

 14 15  0  0  0  0            999 V2000
   -2.2545   -2.8580    0.0000 C   0  0  0  0  0  0  0  0  0  0  0  0
   -1.5401   -2.4455    0.0000 C   0  0  0  0  0  0  0  0  0  0  0  0
   -1.5401   -1.6205    0.0000 C   0  0  0  0  0  0  0  0  0  0  0  0
   -0.8256   -1.2080    0.0000 C   0  0  0  0  0  0  0  0  0  0  0  0
   -0.8256   -0.3830    0.0000 C   0  0  0  0  0  0  0  0  0  0  0  0
   -1.5401    0.0295    0.0000 C   0  0  0  0  0  0  0  0  0  0  0  0
   -1.5401    0.8545    0.0000 C   0  0  0  0  0  0  0  0  0  0  0  0
   -0.8256    1.2670    0.0000 C   0  0  0  0  0  0  0  0  0  0  0  0
   -0.8256    2.0920    0.0000 C   0  0  0  0  0  0  0  0  0  0  0  0
   -1.5401    2.5045    0.0000 C   0  0  0  0  0  0  0  0  0  0  0  0
   -2.2545    2.0920    0.0000 C   0  0  0  0  0  0  0  0  0  0  0  0
   -2.2545    1.2670    0.0000 C   0  0  0  0  0  0  0  0  0  0  0  0
   -2.2545   -0.3830    0.0000 C   0  0  0  0  0  0  0  0  0  0  0  0
   -2.2545   -1.2080    0.0000 C   0  0  0  0  0  0  0  0  0  0  0  0
  1  2  1  0  0  0  0
  2  3  1  0  0  0  0
  4  3  2  0  0  0  0
  5  4  1  0  0  0  0
  6  5  2  0  0  0  0
  6  7  1  0  0  0  0
  8  7  2  0  0  0  0
  9  8  1  0  0  0  0
 10  9  2  0  0  0  0
 11 10  1  0  0  0  0
 12 11  2  0  0  0  0
  7 12  1  0  0  0  0
 13  6  1  0  0  0  0
 14 13  2  0  0  0  0
  3 14  1  0  0  0  0
M  END
> <ChemID>
201736

> <CAS>
5707-44-8

> <Original_SMILES>
CCc1ccc(cc1)-c1ccccc1

> <preferred_name>
1,1'-Biphenyl, 4-ethyl-

> <dsstox_substance_id>
DTXSID7073355

> <dsstox_compound_id>
DTXCID0042163

> <qc_level>


> <Canonical_QSARr>
CCC1C=CC(=CC=1)C1C=CC=CC=1

> <InChI_Code_QSARr>
InChI=1S/C14H14/c1-2-12-8-10-14(11-9-12)13-6-4-3-5-7-13/h3-11H,2H2,1H3

> <InChI Key_QSARr>
SRQOBNUBCLPPPH-UHFFFAOYSA-N

> <Salt_Solvent>


> <Salt_Solvent_ID>
0

> <MPID>
101428

> <Tr_1_Tst_0>
0

> <Ready_Biodeg>
0.0

$$$$
Row1394
  Mrv171c012251911052D          

  9  9  0  0  0  0            999 V2000
   -2.2048   -0.2995    0.0000 C   0  0  0  0  0  0  0  0  0  0  0  0
   -1.4903   -0.7120    0.0000 C   0  0  0  0  0  0  0  0  0  0  0  0
   -0.7759   -0.2995    0.0000 C   0  0  0  0  0  0  0  0  0  0  0  0
   -0.0614   -0.7120    0.0000 C   0  0  0  0  0  0  0  0  0  0  0  0
    0.6531   -0.2995    0.0000 C   0  0  0  0  0  0  0  0  0  0  0  0
    0.6531    0.5255    0.0000 C   0  0  0  0  0  0  0  0  0  0  0  0
   -0.0614    0.9380    0.0000 C   0  0  0  0  0  0  0  0  0  0  0  0
   -0.0614    1.7630    0.0000 O   0  0  0  0  0  0  0  0  0  0  0  0
   -0.7759    0.5255    0.0000 C   0  0  0  0  0  0  0  0  0  0  0  0
  1  2  1  0  0  0  0
  2  3  1  0  0  0  0
  4  3  2  0  0  0  0
  5  4  1  0  0  0  0
  6  5  2  0  0  0  0
  7  6  1  0  0  0  0
  7  8  1  0  0  0  0
  9  7  2  0  0  0  0
  3  9  1  0  0  0  0
M  END
> <ChemID>
201737

> <CAS>
620-17-7

> <Original_SMILES>
CCc1cccc(O)c1

> <preferred_name>
3-Ethylphenol

> <dsstox_substance_id>
DTXSID0022480

> <dsstox_compound_id>
DTXCID402480

> <qc_level>


> <Canonical_QSARr>
CCC1C=C(O)C=CC=1

> <InChI_Code_QSARr>
InChI=1S/C8H10O/c1-2-7-4-3-5-8(9)6-7/h3-6,9H,2H2,1H3

> <InChI Key_QSARr>
HMNKTRSOROOSPP-UHFFFAOYSA-N

> <Salt_Solvent>


> <Salt_Solvent_ID>
0

> <MPID>
101429

> <Tr_1_Tst_0>
1

> <Ready_Biodeg>
1.0

$$$$
Row1395
  Mrv171c012251911052D          

 16 17  0  0  0  0            999 V2000
    1.1202    0.2402    0.0000 C   0  0  0  0  0  0  0  0  0  0  0  0
    1.1202   -0.5848    0.0000 C   0  0  0  0  0  0  0  0  0  0  0  0
    0.4057   -0.9973    0.0000 C   0  0  0  0  0  0  0  0  0  0  0  0
    0.4057   -1.8223    0.0000 C   0  0  0  0  0  0  0  0  0  0  0  0
   -0.3088   -2.2348    0.0000 C   0  0  0  0  0  0  0  0  0  0  0  0
   -1.0233   -1.8223    0.0000 C   0  0  0  0  0  0  0  0  0  0  0  0
   -1.0233   -0.9973    0.0000 C   0  0  0  0  0  0  0  0  0  0  0  0
   -0.3088   -0.5848    0.0000 C   0  0  0  0  0  0  0  0  0  0  0  0
   -0.3088    0.2402    0.0000 C   0  0  0  0  0  0  0  0  0  0  0  0
    0.4057    0.6527    0.0000 C   0  0  0  0  0  0  0  0  0  0  0  0
    0.4057    1.4777    0.0000 C   0  0  0  0  0  0  0  0  0  0  0  0
   -0.3088    1.8902    0.0000 C   0  0  0  0  0  0  0  0  0  0  0  0
   -1.0233    1.4777    0.0000 C   0  0  0  0  0  0  0  0  0  0  0  0
   -1.0233    0.6527    0.0000 C   0  0  0  0  0  0  0  0  0  0  0  0
   -1.7377    0.2402    0.0000 C   0  0  0  0  0  0  0  0  0  0  0  0
   -1.7377   -0.5848    0.0000 C   0  0  0  0  0  0  0  0  0  0  0  0
  1  2  1  0  0  0  0
  2  3  1  0  0  0  0
  4  3  2  0  0  0  0
  5  4  1  0  0  0  0
  6  5  2  0  0  0  0
  7  6  1  0  0  0  0
  8  7  2  0  0  0  0
  3  8  1  0  0  0  0
  8  9  1  0  0  0  0
 10  9  2  0  0  0  0
 11 10  1  0  0  0  0
 12 11  2  0  0  0  0
 13 12  1  0  0  0  0
 14 13  2  0  0  0  0
  9 14  1  0  0  0  0
 14 15  1  0  0  0  0
 15 16  1  0  0  0  0
M  END
> <ChemID>
201738

> <CAS>
13049-35-9

> <Original_SMILES>
CCc1ccccc1-c1ccccc1CC

> <preferred_name>


> <dsstox_substance_id>
DTXSID00156576

> <dsstox_compound_id>
DTXCID4079067

> <qc_level>


> <Canonical_QSARr>
CCC1=CC=CC=C1C1=CC=CC=C1CC

> <InChI_Code_QSARr>
InChI=1S/C16H18/c1-3-13-9-5-7-11-15(13)16-12-8-6-10-14(16)4-2/h5-12H,3-4H2,1-2H3

> <InChI Key_QSARr>
VYVNYOJZPQVWHK-UHFFFAOYSA-N

> <Salt_Solvent>


> <Salt_Solvent_ID>
0

> <MPID>
101430

> <Tr_1_Tst_0>
1

> <Ready_Biodeg>
0.0

$$$$
Row1396
  Mrv171c012251911052D          

 10 10  0  0  0  0            999 V2000
   -1.0003    0.5775    0.0000 C   0  0  0  0  0  0  0  0  0  0  0  0
   -1.0003   -0.2475    0.0000 C   0  0  0  0  0  0  0  0  0  0  0  0
   -0.2858   -0.6600    0.0000 C   0  0  0  0  0  0  0  0  0  0  0  0
   -0.2858   -1.4850    0.0000 C   0  0  0  0  0  0  0  0  0  0  0  0
    0.4287   -1.8975    0.0000 C   0  0  0  0  0  0  0  0  0  0  0  0
    1.1432   -1.4850    0.0000 C   0  0  0  0  0  0  0  0  0  0  0  0
    1.1432   -0.6600    0.0000 C   0  0  0  0  0  0  0  0  0  0  0  0
    0.4287   -0.2475    0.0000 C   0  0  0  0  0  0  0  0  0  0  0  0
    0.4287    0.5775    0.0000 C   0  0  0  0  0  0  0  0  0  0  0  0
   -0.2858    0.9900    0.0000 C   0  0  0  0  0  0  0  0  0  0  0  0
  1  2  1  0  0  0  0
  2  3  1  0  0  0  0
  4  3  2  0  0  0  0
  5  4  1  0  0  0  0
  6  5  2  0  0  0  0
  7  6  1  0  0  0  0
  8  7  2  0  0  0  0
  3  8  1  0  0  0  0
  8  9  1  0  0  0  0
  9 10  2  0  0  0  0
M  END
> <ChemID>
201739

> <CAS>
28106-30-1

> <Original_SMILES>
CCc1ccccc1C=C

> <preferred_name>
Ethylstyrene

> <dsstox_substance_id>
DTXSID5027938

> <dsstox_compound_id>
DTXCID607938

> <qc_level>


> <Canonical_QSARr>
CCC1=CC=CC=C1C=C

> <InChI_Code_QSARr>
InChI=1S/C10H12/c1-3-9-7-5-6-8-10(9)4-2/h3,5-8H,1,4H2,2H3

> <InChI Key_QSARr>
VTPNYMSKBPZSTF-UHFFFAOYSA-N

> <Salt_Solvent>


> <Salt_Solvent_ID>
0

> <MPID>
101431

> <Tr_1_Tst_0>
1

> <Ready_Biodeg>
0.0

$$$$
Row1397
  Mrv171c012251911052D          

 11 11  0  0  0  0            999 V2000
   -1.3566    1.3547    0.0000 C   0  0  0  0  0  0  0  0  0  0  0  0
   -1.3566    0.5297    0.0000 C   0  0  0  0  0  0  0  0  0  0  0  0
   -0.6422    0.1172    0.0000 C   0  0  0  0  0  0  0  0  0  0  0  0
   -0.6422   -0.7078    0.0000 C   0  0  0  0  0  0  0  0  0  0  0  0
    0.0723   -1.1203    0.0000 C   0  0  0  0  0  0  0  0  0  0  0  0
    0.7868   -0.7078    0.0000 C   0  0  0  0  0  0  0  0  0  0  0  0
    0.7868    0.1172    0.0000 C   0  0  0  0  0  0  0  0  0  0  0  0
    0.0723    0.5297    0.0000 C   0  0  0  0  0  0  0  0  0  0  0  0
    0.0723    1.3547    0.0000 N   0  3  0  0  0  0  0  0  0  0  0  0
   -0.6422    1.7672    0.0000 O   0  5  0  0  0  0  0  0  0  0  0  0
    0.7868    1.7672    0.0000 O   0  0  0  0  0  0  0  0  0  0  0  0
  1  2  1  0  0  0  0
  2  3  1  0  0  0  0
  4  3  2  0  0  0  0
  5  4  1  0  0  0  0
  6  5  2  0  0  0  0
  7  6  1  0  0  0  0
  8  7  2  0  0  0  0
  3  8  1  0  0  0  0
  8  9  1  0  0  0  0
  9 10  1  0  0  0  0
  9 11  2  0  0  0  0
M  CHG  2   9   1  10  -1
M  END
> <ChemID>
201740

> <CAS>
612-22-6

> <Original_SMILES>
CCc1ccccc1[N+]([O-])=O

> <preferred_name>
Benzene, 1-ethyl-2-nitro-

> <dsstox_substance_id>
DTXSID4073209

> <dsstox_compound_id>
DTXCID7042980

> <qc_level>


> <Canonical_QSARr>
CCC1=CC=CC=C1[N+]([O-])=O

> <InChI_Code_QSARr>
InChI=1S/C8H9NO2/c1-2-7-5-3-4-6-8(7)9(10)11/h3-6H,2H2,1H3

> <InChI Key_QSARr>
PXWYZLWEKCMTEZ-UHFFFAOYSA-N

> <Salt_Solvent>


> <Salt_Solvent_ID>
0

> <MPID>
101432

> <Tr_1_Tst_0>
0

> <Ready_Biodeg>
0.0

$$$$
Row1398
  Mrv171c012251911052D          

 18 17  0  0  0  0            999 V2000
    4.8886   -1.0031    0.0000 C   0  0  0  0  0  0  0  0  0  0  0  0
    4.4761   -0.2886    0.0000 O   0  0  0  0  0  0  0  0  0  0  0  0
    3.6511   -0.2886    0.0000 Si  0  0  0  0  0  0  0  0  0  0  0  0
    2.8261   -0.2886    0.0000 C   0  0  0  0  0  0  0  0  0  0  0  0
    2.4136    0.4258    0.0000 C   0  0  0  0  0  0  0  0  0  0  0  0
    1.5886    0.4258    0.0000 C   0  0  0  0  0  0  0  0  0  0  0  0
    1.1761    1.1403    0.0000 N   0  0  0  0  0  0  0  0  0  0  0  0
    0.3511    1.1403    0.0000 C   0  0  0  0  0  0  0  0  0  0  0  0
   -0.0614    0.4258    0.0000 N   0  0  0  0  0  0  0  0  0  0  0  0
   -0.8864    0.4258    0.0000 C   0  0  0  0  0  0  0  0  0  0  0  0
    0.3511   -0.2886    0.0000 C   0  0  0  0  0  0  0  0  0  0  0  0
   -0.0614    1.8548    0.0000 N   0  0  0  0  0  0  0  0  0  0  0  0
   -0.8864    1.8548    0.0000 C   0  0  0  0  0  0  0  0  0  0  0  0
    0.3511    2.5693    0.0000 C   0  0  0  0  0  0  0  0  0  0  0  0
    3.6511    0.5364    0.0000 O   0  0  0  0  0  0  0  0  0  0  0  0
    2.9367    0.9489    0.0000 C   0  0  0  0  0  0  0  0  0  0  0  0
    3.6511   -1.1136    0.0000 O   0  0  0  0  0  0  0  0  0  0  0  0
    2.9367   -1.5261    0.0000 C   0  0  0  0  0  0  0  0  0  0  0  0
  1  2  1  0  0  0  0
  2  3  1  0  0  0  0
  3  4  1  0  0  0  0
  4  5  1  0  0  0  0
  5  6  1  0  0  0  0
  6  7  1  0  0  0  0
  7  8  2  0  0  0  0
  8  9  1  0  0  0  0
  9 10  1  0  0  0  0
  9 11  1  0  0  0  0
  8 12  1  0  0  0  0
 12 13  1  0  0  0  0
 12 14  1  0  0  0  0
  3 15  1  0  0  0  0
 15 16  1  0  0  0  0
  3 17  1  0  0  0  0
 17 18  1  0  0  0  0
M  END
> <ChemID>
201742

> <CAS>
69709-01-9

> <Original_SMILES>
CN(C)C(=NCCC[Si](OC)(OC)OC)N(C)C

> <preferred_name>
N,N,N',N'-Tetramethyl-N''-(3-(trimethoxysilyl)propyl)guanidine

> <dsstox_substance_id>
DTXSID00219998

> <dsstox_compound_id>
DTXCID50142489

> <qc_level>


> <Canonical_QSARr>
CN(C)C(=NCCC[Si](OC)(OC)OC)N(C)C

> <InChI_Code_QSARr>
InChI=1S/C11H27N3O3Si/c1-13(2)11(14(3)4)12-9-8-10-18(15-5,16-6)17-7/h8-10H2,1-7H3

> <InChI Key_QSARr>
ZUEIRGBMFHHKAC-UHFFFAOYSA-N

> <Salt_Solvent>


> <Salt_Solvent_ID>
0

> <MPID>
101433

> <Tr_1_Tst_0>
1

> <Ready_Biodeg>
0.0

$$$$
Row1399
  Mrv171c012251911052D          

  7  6  0  0  0  0            999 V2000
    0.4125   -0.9186    0.0000 C   0  0  0  0  0  0  0  0  0  0  0  0
    0.0000   -0.2041    0.0000 N   0  0  0  0  0  0  0  0  0  0  0  0
    0.4125    0.5103    0.0000 C   0  0  0  0  0  0  0  0  0  0  0  0
   -0.8250   -0.2041    0.0000 C   0  0  0  0  0  0  0  0  0  0  0  0
   -1.2375   -0.9186    0.0000 O   0  0  0  0  0  0  0  0  0  0  0  0
   -1.2375    0.5103    0.0000 C   0  0  0  0  0  0  0  0  0  0  0  0
   -2.0625    0.5103    0.0000 C   0  0  0  0  0  0  0  0  0  0  0  0
  1  2  1  0  0  0  0
  2  3  1  0  0  0  0
  2  4  1  0  0  0  0
  4  5  2  0  0  0  0
  4  6  1  0  0  0  0
  6  7  2  0  0  0  0
M  END
> <ChemID>
201743

> <CAS>
2680-03-7

> <Original_SMILES>
CN(C)C(=O)C=C

> <preferred_name>
N,N-Dimethylacrylamide

> <dsstox_substance_id>
DTXSID0051944

> <dsstox_compound_id>
DTXCID3030507

> <qc_level>


> <Canonical_QSARr>
CN(C)C(=O)C=C

> <InChI_Code_QSARr>
InChI=1S/C5H9NO/c1-4-5(7)6(2)3/h4H,1H2,2-3H3

> <InChI Key_QSARr>
YLGYACDQVQQZSW-UHFFFAOYSA-N

> <Salt_Solvent>


> <Salt_Solvent_ID>
0

> <MPID>
101434

> <Tr_1_Tst_0>
1

> <Ready_Biodeg>
0.0

$$$$
Row1400
  Mrv171c012251911052D          

 14 13  0  0  0  0            999 V2000
    0.6630    1.8432    0.0000 C   0  0  0  0  0  0  0  0  0  0  0  0
   -0.0515    1.4307    0.0000 N   0  0  0  0  0  0  0  0  0  0  0  0
   -0.7660    1.8432    0.0000 C   0  0  0  0  0  0  0  0  0  0  0  0
   -0.0515    0.6057    0.0000 C   0  0  0  0  0  0  0  0  0  0  0  0
   -0.7660    0.1932    0.0000 C   0  0  0  0  0  0  0  0  0  0  0  0
   -1.4804    0.6057    0.0000 S   0  0  0  0  0  0  0  0  0  0  0  0
   -2.1949    0.1932    0.0000 C   0  0  0  0  0  0  0  0  0  0  0  0
   -2.9094    0.6057    0.0000 N   0  0  0  0  0  0  0  0  0  0  0  0
   -2.1949   -0.6318    0.0000 O   0  0  0  0  0  0  0  0  0  0  0  0
    0.6630    0.1932    0.0000 C   0  0  0  0  0  0  0  0  0  0  0  0
    1.3775    0.6057    0.0000 S   0  0  0  0  0  0  0  0  0  0  0  0
    2.0919    0.1932    0.0000 C   0  0  0  0  0  0  0  0  0  0  0  0
    2.8064    0.6057    0.0000 N   0  0  0  0  0  0  0  0  0  0  0  0
    2.0919   -0.6318    0.0000 O   0  0  0  0  0  0  0  0  0  0  0  0
  1  2  1  0  0  0  0
  2  3  1  0  0  0  0
  2  4  1  0  0  0  0
  4  5  1  0  0  0  0
  5  6  1  0  0  0  0
  6  7  1  0  0  0  0
  7  8  1  0  0  0  0
  7  9  2  0  0  0  0
  4 10  1  0  0  0  0
 10 11  1  0  0  0  0
 11 12  1  0  0  0  0
 12 13  1  0  0  0  0
 12 14  2  0  0  0  0
M  END
> <ChemID>
201747

> <CAS>
15263-53-3

> <Original_SMILES>
CN(C)C(CSC(N)=O)CSC(N)=O

> <preferred_name>
Cartap

> <dsstox_substance_id>
DTXSID4044165

> <dsstox_compound_id>
DTXCID2024165

> <qc_level>


> <Canonical_QSARr>
CN(C)C(CSC(N)=O)CSC(N)=O

> <InChI_Code_QSARr>
InChI=1S/C7H15N3O2S2/c1-10(2)5(3-13-6(8)11)4-14-7(9)12/h5H,3-4H2,1-2H3,(H2,8,11)(H2,9,12)

> <InChI Key_QSARr>
IRUJZVNXZWPBMU-UHFFFAOYSA-N

> <Salt_Solvent>


> <Salt_Solvent_ID>
0

> <MPID>
101435

> <Tr_1_Tst_0>
1

> <Ready_Biodeg>
0.0

$$$$
Row1401
  Mrv171c012251911052D          

 12 11  0  0  0  0            999 V2000
   -2.8026   -0.2062    0.0000 C   0  0  0  0  0  0  0  0  0  0  0  0
   -2.0881    0.2063    0.0000 N   0  0  0  0  0  0  0  0  0  0  0  0
   -2.0881    1.0313    0.0000 C   0  0  0  0  0  0  0  0  0  0  0  0
   -1.3737   -0.2062    0.0000 C   0  0  0  0  0  0  0  0  0  0  0  0
   -0.6592    0.2063    0.0000 C   0  0  0  0  0  0  0  0  0  0  0  0
    0.0553   -0.2062    0.0000 C   0  0  0  0  0  0  0  0  0  0  0  0
    0.7698    0.2063    0.0000 C   0  0  0  0  0  0  0  0  0  0  0  0
    1.4842   -0.2063    0.0000 C   0  0  0  0  0  0  0  0  0  0  0  0
    2.1987    0.2062    0.0000 C   0  0  0  0  0  0  0  0  0  0  0  0
    2.9132   -0.2063    0.0000 N   0  0  0  0  0  0  0  0  0  0  0  0
    3.6276    0.2062    0.0000 C   0  0  0  0  0  0  0  0  0  0  0  0
    2.9132   -1.0313    0.0000 C   0  0  0  0  0  0  0  0  0  0  0  0
  1  2  1  0  0  0  0
  2  3  1  0  0  0  0
  2  4  1  0  0  0  0
  4  5  1  0  0  0  0
  5  6  1  0  0  0  0
  6  7  1  0  0  0  0
  7  8  1  0  0  0  0
  8  9  1  0  0  0  0
  9 10  1  0  0  0  0
 10 11  1  0  0  0  0
 10 12  1  0  0  0  0
M  END
> <ChemID>
201749

> <CAS>
111-18-2

> <Original_SMILES>
CN(C)CCCCCCN(C)C

> <preferred_name>
N,N,N',N`-Tetramethylhexanediamine

> <dsstox_substance_id>
DTXSID5033701

> <dsstox_compound_id>
DTXCID3013701

> <qc_level>


> <Canonical_QSARr>
CN(C)CCCCCCN(C)C

> <InChI_Code_QSARr>
InChI=1S/C10H24N2/c1-11(2)9-7-5-6-8-10-12(3)4/h5-10H2,1-4H3

> <InChI Key_QSARr>
TXXWBTOATXBWDR-UHFFFAOYSA-N

> <Salt_Solvent>


> <Salt_Solvent_ID>
0

> <MPID>
101436

> <Tr_1_Tst_0>
0

> <Ready_Biodeg>
0.0

$$$$
Row1402
  Mrv171c012251911052D          

  6  5  0  0  0  0            999 V2000
    1.1000   -0.9526    0.0000 C   0  0  0  0  0  0  0  0  0  0  0  0
    0.6875   -0.2382    0.0000 N   0  0  0  0  0  0  0  0  0  0  0  0
    1.1000    0.4763    0.0000 C   0  0  0  0  0  0  0  0  0  0  0  0
   -0.1375   -0.2382    0.0000 C   0  0  0  0  0  0  0  0  0  0  0  0
   -0.5500    0.4763    0.0000 C   0  0  0  0  0  0  0  0  0  0  0  0
   -1.3750    0.4763    0.0000 N   0  0  0  0  0  0  0  0  0  0  0  0
  1  2  1  0  0  0  0
  2  3  1  0  0  0  0
  2  4  1  0  0  0  0
  4  5  1  0  0  0  0
  5  6  1  0  0  0  0
M  END
> <ChemID>
201750

> <CAS>
108-00-9

> <Original_SMILES>
CN(C)CCN

> <preferred_name>
1,2-Ethanediamine, N,N-dimethyl-

> <dsstox_substance_id>
DTXSID7059357

> <dsstox_compound_id>
DTXCID0033097

> <qc_level>


> <Canonical_QSARr>
CN(C)CCN

> <InChI_Code_QSARr>
InChI=1S/C4H12N2/c1-6(2)4-3-5/h3-5H2,1-2H3

> <InChI Key_QSARr>
DILRJUIACXKSQE-UHFFFAOYSA-N

> <Salt_Solvent>


> <Salt_Solvent_ID>
0

> <MPID>
101437

> <Tr_1_Tst_0>
1

> <Ready_Biodeg>
0.0

$$$$
Row1403
  Mrv171c012251911052D          

 11 10  0  0  0  0            999 V2000
   -4.2867    0.2250    0.0000 C   0  0  0  0  0  0  0  0  0  0  0  0
   -3.5722   -0.1875    0.0000 N   0  0  0  0  0  0  0  0  0  0  0  0
   -3.5722   -1.0125    0.0000 C   0  0  0  0  0  0  0  0  0  0  0  0
   -2.8578    0.2250    0.0000 C   0  0  0  0  0  0  0  0  0  0  0  0
   -2.1433   -0.1875    0.0000 C   0  0  0  0  0  0  0  0  0  0  0  0
   -1.4288    0.2250    0.0000 O   0  0  0  0  0  0  0  0  0  0  0  0
   -0.7144   -0.1875    0.0000 C   0  0  0  0  0  0  0  0  0  0  0  0
    0.0001    0.2250    0.0000 C   0  0  0  0  0  0  0  0  0  0  0  0
    0.7146   -0.1875    0.0000 N   0  0  0  0  0  0  0  0  0  0  0  0
    1.4291    0.2250    0.0000 C   0  0  0  0  0  0  0  0  0  0  0  0
    0.7146   -1.0125    0.0000 C   0  0  0  0  0  0  0  0  0  0  0  0
  1  2  1  0  0  0  0
  2  3  1  0  0  0  0
  2  4  1  0  0  0  0
  4  5  1  0  0  0  0
  5  6  1  0  0  0  0
  6  7  1  0  0  0  0
  7  8  1  0  0  0  0
  8  9  1  0  0  0  0
  9 10  1  0  0  0  0
  9 11  1  0  0  0  0
M  END
> <ChemID>
201752

> <CAS>
3033-62-3

> <Original_SMILES>
CN(C)CCOCCN(C)C

> <preferred_name>
Bis[2-(dimethylamino)ethyl]ether

> <dsstox_substance_id>
DTXSID5027512

> <dsstox_compound_id>
DTXCID807512

> <qc_level>


> <Canonical_QSARr>
CN(C)CCOCCN(C)C

> <InChI_Code_QSARr>
InChI=1S/C8H20N2O/c1-9(2)5-7-11-8-6-10(3)4/h5-8H2,1-4H3

> <InChI Key_QSARr>
GTEXIOINCJRBIO-UHFFFAOYSA-N

> <Salt_Solvent>


> <Salt_Solvent_ID>
0

> <MPID>
101438

> <Tr_1_Tst_0>
1

> <Ready_Biodeg>
0.0

$$$$
Row1404
  Mrv171c012251911052D          

 18 18  0  0  0  0            999 V2000
    1.0394    2.5662    0.0000 C   0  0  0  0  0  0  0  0  0  0  0  0
    1.0394    1.7412    0.0000 N   0  0  0  0  0  0  0  0  0  0  0  0
    1.7538    1.3287    0.0000 C   0  0  0  0  0  0  0  0  0  0  0  0
    0.3249    1.3287    0.0000 S   0  0  0  0  0  0  0  0  0  0  0  0
   -0.0876    2.0432    0.0000 O   0  0  0  0  0  0  0  0  0  0  0  0
    0.7374    0.6143    0.0000 O   0  0  0  0  0  0  0  0  0  0  0  0
   -0.3896    0.9162    0.0000 N   0  0  0  0  0  0  0  0  0  0  0  0
   -1.1040    1.3287    0.0000 S   0  0  0  0  0  0  0  0  0  0  0  0
   -1.8185    0.9162    0.0000 C   0  0  0  0  0  0  0  0  0  0  0  0
   -1.4060    0.2018    0.0000 F   0  0  0  0  0  0  0  0  0  0  0  0
   -2.5330    0.5037    0.0000 Cl  0  0  0  0  0  0  0  0  0  0  0  0
   -2.2310    1.6307    0.0000 Cl  0  0  0  0  0  0  0  0  0  0  0  0
   -0.3896    0.0912    0.0000 C   0  0  0  0  0  0  0  0  0  0  0  0
   -1.1040   -0.3213    0.0000 C   0  0  0  0  0  0  0  0  0  0  0  0
   -1.1040   -1.1463    0.0000 C   0  0  0  0  0  0  0  0  0  0  0  0
   -0.3896   -1.5588    0.0000 C   0  0  0  0  0  0  0  0  0  0  0  0
    0.3249   -1.1463    0.0000 C   0  0  0  0  0  0  0  0  0  0  0  0
    0.3249   -0.3213    0.0000 C   0  0  0  0  0  0  0  0  0  0  0  0
  1  2  1  0  0  0  0
  2  3  1  0  0  0  0
  2  4  1  0  0  0  0
  4  5  2  0  0  0  0
  4  6  2  0  0  0  0
  4  7  1  0  0  0  0
  7  8  1  0  0  0  0
  8  9  1  0  0  0  0
  9 10  1  0  0  0  0
  9 11  1  0  0  0  0
  9 12  1  0  0  0  0
  7 13  1  0  0  0  0
 14 13  2  0  0  0  0
 15 14  1  0  0  0  0
 16 15  2  0  0  0  0
 17 16  1  0  0  0  0
 18 17  2  0  0  0  0
 13 18  1  0  0  0  0
M  END
> <ChemID>
201756

> <CAS>
1085-98-9

> <Original_SMILES>
CN(C)S(=O)(=O)N(SC(F)(Cl)Cl)c1ccccc1

> <preferred_name>
Dichlofluanid

> <dsstox_substance_id>
DTXSID5041851

> <dsstox_compound_id>
DTXCID3021851

> <qc_level>


> <Canonical_QSARr>
CN(C)S(=O)(=O)N(SC(F)(Cl)Cl)C1C=CC=CC=1

> <InChI_Code_QSARr>
InChI=1S/C9H11Cl2FN2O2S2/c1-13(2)18(15,16)14(17-9(10,11)12)8-6-4-3-5-7-8/h3-7H,1-2H3

> <InChI Key_QSARr>
WURGXGVFSMYFCG-UHFFFAOYSA-N

> <Salt_Solvent>


> <Salt_Solvent_ID>
0

> <MPID>
101439

> <Tr_1_Tst_0>
1

> <Ready_Biodeg>
0.0

$$$$
Row1405
  Mrv171c012251911052D          

 12 12  0  0  0  0            999 V2000
   -1.5966   -1.4738    0.0000 C   0  0  0  0  0  0  0  0  0  0  0  0
   -1.5966   -0.6488    0.0000 N   0  0  0  0  0  0  0  0  0  0  0  0
   -2.3111   -0.2363    0.0000 C   0  0  0  0  0  0  0  0  0  0  0  0
   -0.8821   -0.2363    0.0000 C   0  0  0  0  0  0  0  0  0  0  0  0
   -0.1676   -0.6488    0.0000 C   0  0  0  0  0  0  0  0  0  0  0  0
    0.5468   -0.2363    0.0000 C   0  0  0  0  0  0  0  0  0  0  0  0
    0.5468    0.5887    0.0000 C   0  0  0  0  0  0  0  0  0  0  0  0
   -0.1676    1.0012    0.0000 C   0  0  0  0  0  0  0  0  0  0  0  0
   -0.1676    1.8262    0.0000 C   0  0  0  0  0  0  0  0  0  0  0  0
   -0.8821    2.2387    0.0000 O   0  0  0  0  0  0  0  0  0  0  0  0
    0.5468    2.2387    0.0000 O   0  0  0  0  0  0  0  0  0  0  0  0
   -0.8821    0.5887    0.0000 C   0  0  0  0  0  0  0  0  0  0  0  0
  1  2  1  0  0  0  0
  2  3  1  0  0  0  0
  2  4  1  0  0  0  0
  5  4  2  0  0  0  0
  6  5  1  0  0  0  0
  7  6  2  0  0  0  0
  8  7  1  0  0  0  0
  8  9  1  0  0  0  0
  9 10  1  0  0  0  0
  9 11  2  0  0  0  0
 12  8  2  0  0  0  0
  4 12  1  0  0  0  0
M  END
> <ChemID>
201757

> <CAS>
99-64-9

> <Original_SMILES>
CN(C)c1cc(ccc1)C(O)=O

> <preferred_name>
Benzoic acid, 3-(dimethylamino)-

> <dsstox_substance_id>
DTXSID7059199

> <dsstox_compound_id>
DTXCID0049109

> <qc_level>


> <Canonical_QSARr>
CN(C)C1C=C(C=CC=1)C(O)=O

> <InChI_Code_QSARr>
InChI=1S/C9H11NO2/c1-10(2)8-5-3-4-7(6-8)9(11)12/h3-6H,1-2H3,(H,11,12)

> <InChI Key_QSARr>
NEGFNJRAUMCZMY-UHFFFAOYSA-N

> <Salt_Solvent>


> <Salt_Solvent_ID>
0

> <MPID>
101440

> <Tr_1_Tst_0>
0

> <Ready_Biodeg>
0.0

$$$$
Row1406
  Mrv171c012251911052D          

 31 34  0  0  0  0            999 V2000
    0.4539   -3.6499    0.0000 C   0  0  0  0  0  0  0  0  0  0  0  0
    0.9388   -2.9824    0.0000 N   0  0  0  0  0  0  0  0  0  0  0  0
    1.7593   -3.0687    0.0000 C   0  0  0  0  0  0  0  0  0  0  0  0
    0.6032   -2.2288    0.0000 C   0  0  0  0  0  0  0  0  0  0  0  0
    1.0881   -1.5613    0.0000 C   0  0  0  0  0  0  0  0  0  0  0  0
    0.7526   -0.8077    0.0000 C   0  0  0  0  0  0  0  0  0  0  0  0
   -0.0679   -0.7214    0.0000 C   0  0  0  0  0  0  0  0  0  0  0  0
   -0.4035    0.0323    0.0000 C   0  0  0  0  0  0  0  0  0  0  0  0
   -0.8884    0.6997    0.0000 O   0  0  0  0  0  0  0  0  0  0  0  0
   -0.4035    1.3671    0.0000 C   0  0  0  0  0  0  0  0  0  0  0  0
   -0.6584    2.1518    0.0000 O   0  0  0  0  0  0  0  0  0  0  0  0
    0.3812    1.1122    0.0000 C   0  0  0  0  0  0  0  0  0  0  0  0
    1.0956    1.5247    0.0000 C   0  0  0  0  0  0  0  0  0  0  0  0
    1.8101    1.1122    0.0000 C   0  0  0  0  0  0  0  0  0  0  0  0
    1.8101    0.2872    0.0000 C   0  0  0  0  0  0  0  0  0  0  0  0
    1.0956   -0.1253    0.0000 C   0  0  0  0  0  0  0  0  0  0  0  0
    0.3812    0.2872    0.0000 C   0  0  0  0  0  0  0  0  0  0  0  0
    2.5246    1.5247    0.0000 N   0  0  0  0  0  0  0  0  0  0  0  0
    2.5246    2.3497    0.0000 C   0  0  0  0  0  0  0  0  0  0  0  0
    3.2390    1.1122    0.0000 C   0  0  0  0  0  0  0  0  0  0  0  0
   -1.1179   -0.3802    0.0000 C   0  0  0  0  0  0  0  0  0  0  0  0
   -1.8324    0.0323    0.0000 C   0  0  0  0  0  0  0  0  0  0  0  0
   -2.5469   -0.3802    0.0000 C   0  0  0  0  0  0  0  0  0  0  0  0
   -2.5469   -1.2052    0.0000 C   0  0  0  0  0  0  0  0  0  0  0  0
   -3.2613   -1.6177    0.0000 N   0  0  0  0  0  0  0  0  0  0  0  0
   -3.2613   -2.4427    0.0000 C   0  0  0  0  0  0  0  0  0  0  0  0
   -3.9758   -1.2052    0.0000 C   0  0  0  0  0  0  0  0  0  0  0  0
   -1.8324   -1.6177    0.0000 C   0  0  0  0  0  0  0  0  0  0  0  0
   -1.1179   -1.2052    0.0000 C   0  0  0  0  0  0  0  0  0  0  0  0
   -0.5528   -1.3889    0.0000 C   0  0  0  0  0  0  0  0  0  0  0  0
   -0.2173   -2.1425    0.0000 C   0  0  0  0  0  0  0  0  0  0  0  0
  1  2  1  0  0  0  0
  2  3  1  0  0  0  0
  2  4  1  0  0  0  0
  5  4  2  0  0  0  0
  6  5  1  0  0  0  0
  7  6  2  0  0  0  0
  7  8  1  0  0  0  0
  9  8  1  0  0  0  0
 10  9  1  0  0  0  0
 10 11  2  0  0  0  0
 12 10  1  0  0  0  0
 12 13  2  0  0  0  0
 13 14  1  0  0  0  0
 14 15  2  0  0  0  0
 15 16  1  0  0  0  0
 16 17  2  0  0  0  0
  8 17  1  0  0  0  0
 17 12  1  0  0  0  0
 14 18  1  0  0  0  0
 18 19  1  0  0  0  0
 18 20  1  0  0  0  0
  8 21  1  0  0  0  0
 22 21  2  0  0  0  0
 23 22  1  0  0  0  0
 24 23  2  0  0  0  0
 24 25  1  0  0  0  0
 25 26  1  0  0  0  0
 25 27  1  0  0  0  0
 28 24  1  0  0  0  0
 29 28  2  0  0  0  0
 21 29  1  0  0  0  0
 30  7  1  0  0  0  0
 31 30  2  0  0  0  0
  4 31  1  0  0  0  0
M  END
> <ChemID>
201758

> <CAS>
1552-42-7

> <Original_SMILES>
CN(C)c1cc2C(=O)OC(c2cc1)(c1ccc(cc1)N(C)C)c1ccc(cc1)N(C)C

> <preferred_name>
Crystal Violet lactone

> <dsstox_substance_id>
DTXSID8024866

> <dsstox_compound_id>
DTXCID204866

> <qc_level>


> <Canonical_QSARr>
CN(C)C1C=C2C(=O)OC(C2=CC=1)(C1C=CC(=CC=1)N(C)C)C1C=CC(=CC=1)N(C)C

> <InChI_Code_QSARr>
InChI=1S/C26H29N3O2/c1-27(2)20-11-7-18(8-12-20)26(19-9-13-21(14-10-19)28(3)4)24-16-15-22(29(5)6)17-23(24)25(30)31-26/h7-17H,1-6H3

> <InChI Key_QSARr>
IPAJDLMMTVZVPP-UHFFFAOYSA-N

> <Salt_Solvent>


> <Salt_Solvent_ID>
0

> <MPID>
101441

> <Tr_1_Tst_0>
1

> <Ready_Biodeg>
0.0

$$$$
Row1407
  Mrv171c012251911052D          

 19 20  0  0  0  0            999 V2000
    0.2256   -3.1697    0.0000 C   0  0  0  0  0  0  0  0  0  0  0  0
    0.9401   -2.7572    0.0000 N   0  0  0  0  0  0  0  0  0  0  0  0
    1.6546   -3.1697    0.0000 C   0  0  0  0  0  0  0  0  0  0  0  0
    0.9401   -1.9322    0.0000 C   0  0  0  0  0  0  0  0  0  0  0  0
    1.6546   -1.5197    0.0000 C   0  0  0  0  0  0  0  0  0  0  0  0
    1.6546   -0.6947    0.0000 C   0  0  0  0  0  0  0  0  0  0  0  0
    0.9401   -0.2822    0.0000 C   0  0  0  0  0  0  0  0  0  0  0  0
    0.9401    0.5428    0.0000 C   0  0  0  0  0  0  0  0  0  0  0  0
    0.2256    0.9553    0.0000 C   0  0  0  0  0  0  0  0  0  0  0  0
    0.2256    1.7803    0.0000 C   0  0  0  0  0  0  0  0  0  0  0  0
   -0.4888    2.1928    0.0000 C   0  0  0  0  0  0  0  0  0  0  0  0
   -1.2033    1.7803    0.0000 C   0  0  0  0  0  0  0  0  0  0  0  0
   -1.9178    2.1928    0.0000 N   0  0  0  0  0  0  0  0  0  0  0  0
   -2.6323    1.7803    0.0000 C   0  0  0  0  0  0  0  0  0  0  0  0
   -1.9178    3.0178    0.0000 C   0  0  0  0  0  0  0  0  0  0  0  0
   -1.2033    0.9553    0.0000 C   0  0  0  0  0  0  0  0  0  0  0  0
   -0.4888    0.5428    0.0000 C   0  0  0  0  0  0  0  0  0  0  0  0
    0.2256   -0.6947    0.0000 C   0  0  0  0  0  0  0  0  0  0  0  0
    0.2256   -1.5197    0.0000 C   0  0  0  0  0  0  0  0  0  0  0  0
  1  2  1  0  0  0  0
  2  3  1  0  0  0  0
  2  4  1  0  0  0  0
  5  4  2  0  0  0  0
  6  5  1  0  0  0  0
  7  6  2  0  0  0  0
  7  8  1  0  0  0  0
  8  9  1  0  0  0  0
 10  9  2  0  0  0  0
 11 10  1  0  0  0  0
 12 11  2  0  0  0  0
 12 13  1  0  0  0  0
 13 14  1  0  0  0  0
 13 15  1  0  0  0  0
 16 12  1  0  0  0  0
 17 16  2  0  0  0  0
  9 17  1  0  0  0  0
 18  7  1  0  0  0  0
 19 18  2  0  0  0  0
  4 19  1  0  0  0  0
M  END
> <ChemID>
201759

> <CAS>
101-61-1

> <Original_SMILES>
CN(C)c1ccc(Cc2ccc(cc2)N(C)C)cc1

> <preferred_name>
4,4'-Methylenebis(N,N-dimethylaniline)

> <dsstox_substance_id>
DTXSID5020869

> <dsstox_compound_id>
DTXCID70869

> <qc_level>


> <Canonical_QSARr>
CN(C)C1C=CC(CC2C=CC(=CC=2)N(C)C)=CC=1

> <InChI_Code_QSARr>
InChI=1S/C17H22N2/c1-18(2)16-9-5-14(6-10-16)13-15-7-11-17(12-8-15)19(3)4/h5-12H,13H2,1-4H3

> <InChI Key_QSARr>
JNRLEMMIVRBKJE-UHFFFAOYSA-N

> <Salt_Solvent>


> <Salt_Solvent_ID>
0

> <MPID>
101442

> <Tr_1_Tst_0>
1

> <Ready_Biodeg>
0.0

$$$$
Row1408
  Mrv171c012251911052D          

 21 22  0  0  0  0            999 V2000
   -2.2069   -2.3964    0.0000 C   0  0  0  0  0  0  0  0  0  0  0  0
   -1.4925   -1.9839    0.0000 N   0  0  0  0  0  0  0  0  0  0  0  0
   -0.7780   -2.3964    0.0000 C   0  0  0  0  0  0  0  0  0  0  0  0
   -1.4925   -1.1589    0.0000 C   0  0  0  0  0  0  0  0  0  0  0  0
   -0.7780   -0.7464    0.0000 C   0  0  0  0  0  0  0  0  0  0  0  0
   -0.7780    0.0786    0.0000 C   0  0  0  0  0  0  0  0  0  0  0  0
   -1.4925    0.4911    0.0000 C   0  0  0  0  0  0  0  0  0  0  0  0
   -1.4925    1.3161    0.0000 C   0  0  0  0  0  0  0  0  0  0  0  0
   -0.7780    1.7286    0.0000 N   0  0  0  0  0  0  0  0  0  0  0  0
   -0.0635    1.3161    0.0000 H   0  0  0  0  0  0  0  0  0  0  0  0
   -2.2069    1.7286    0.0000 C   0  0  0  0  0  0  0  0  0  0  0  0
   -2.2069    2.5536    0.0000 C   0  0  0  0  0  0  0  0  0  0  0  0
   -2.9214    2.9661    0.0000 C   0  0  0  0  0  0  0  0  0  0  0  0
   -3.6359    2.5536    0.0000 C   0  0  0  0  0  0  0  0  0  0  0  0
   -4.3503    2.9661    0.0000 N   0  0  0  0  0  0  0  0  0  0  0  0
   -5.0648    2.5536    0.0000 C   0  0  0  0  0  0  0  0  0  0  0  0
   -4.3503    3.7911    0.0000 C   0  0  0  0  0  0  0  0  0  0  0  0
   -3.6359    1.7286    0.0000 C   0  0  0  0  0  0  0  0  0  0  0  0
   -2.9214    1.3161    0.0000 C   0  0  0  0  0  0  0  0  0  0  0  0
   -2.2069    0.0786    0.0000 C   0  0  0  0  0  0  0  0  0  0  0  0
   -2.2069   -0.7464    0.0000 C   0  0  0  0  0  0  0  0  0  0  0  0
  1  2  1  0  0  0  0
  2  3  1  0  0  0  0
  2  4  1  0  0  0  0
  5  4  2  0  0  0  0
  6  5  1  0  0  0  0
  7  6  2  0  0  0  0
  7  8  1  0  0  0  0
  8  9  2  0  0  0  0
  9 10  1  0  0  0  0
  8 11  1  0  0  0  0
 12 11  2  0  0  0  0
 13 12  1  0  0  0  0
 14 13  2  0  0  0  0
 14 15  1  0  0  0  0
 15 16  1  0  0  0  0
 15 17  1  0  0  0  0
 18 14  1  0  0  0  0
 19 18  2  0  0  0  0
 11 19  1  0  0  0  0
 20  7  1  0  0  0  0
 21 20  2  0  0  0  0
  4 21  1  0  0  0  0
M  END
> <ChemID>
201760

> <CAS>
492-80-8

> <Original_SMILES>
CN(C)c1ccc(cc1)C(=N)c1ccc(cc1)N(C)C

> <preferred_name>
Auramine hydrochloride

> <dsstox_substance_id>
DTXSID7043821

> <dsstox_compound_id>
DTXCID5023821

> <qc_level>


> <Canonical_QSARr>
CN(C)C1C=CC(=CC=1)C(=N)C1C=CC(=CC=1)N(C)C

> <InChI_Code_QSARr>
InChI=1S/C17H21N3/c1-19(2)15-9-5-13(6-10-15)17(18)14-7-11-16(12-8-14)20(3)4/h5-12,18H,1-4H3

> <InChI Key_QSARr>
JPIYZTWMUGTEHX-UHFFFAOYSA-N

> <Salt_Solvent>


> <Salt_Solvent_ID>
0

> <MPID>
101443

> <Tr_1_Tst_0>
1

> <Ready_Biodeg>
0.0

$$$$
Row1409
  Mrv171c012251911052D          

 12 11  0  0  0  0            999 V2000
   -2.8579    1.1000    0.0000 C   0  0  0  0  0  0  0  0  0  0  0  0
   -2.1434    0.6875    0.0000 N   0  0  0  0  0  0  0  0  0  0  0  0
   -2.1434   -0.1375    0.0000 C   0  0  0  0  0  0  0  0  0  0  0  0
   -1.4289    1.1000    0.0000 C   0  0  0  0  0  0  0  0  0  0  0  0
   -0.7144    0.6875    0.0000 C   0  0  0  0  0  0  0  0  0  0  0  0
    0.0000    1.1000    0.0000 N   0  0  0  0  0  0  0  0  0  0  0  0
    0.0000    1.9250    0.0000 C   0  0  0  0  0  0  0  0  0  0  0  0
    0.7145    0.6875    0.0000 C   0  0  0  0  0  0  0  0  0  0  0  0
    1.4290    1.1000    0.0000 C   0  0  0  0  0  0  0  0  0  0  0  0
    2.1434    0.6875    0.0000 N   0  0  0  0  0  0  0  0  0  0  0  0
    2.8579    1.1000    0.0000 C   0  0  0  0  0  0  0  0  0  0  0  0
    2.1434   -0.1375    0.0000 C   0  0  0  0  0  0  0  0  0  0  0  0
  1  2  1  0  0  0  0
  2  3  1  0  0  0  0
  2  4  1  0  0  0  0
  4  5  1  0  0  0  0
  5  6  1  0  0  0  0
  6  7  1  0  0  0  0
  6  8  1  0  0  0  0
  8  9  1  0  0  0  0
  9 10  1  0  0  0  0
 10 11  1  0  0  0  0
 10 12  1  0  0  0  0
M  END
> <ChemID>
201762

> <CAS>
3030-47-5

> <Original_SMILES>
CN(CCN(C)C)CCN(C)C

> <preferred_name>
1,1,4,7,7-Pentamethyldiethylenetriamine

> <dsstox_substance_id>
DTXSID7029249

> <dsstox_compound_id>
DTXCID109249

> <qc_level>


> <Canonical_QSARr>
CN(CCN(C)C)CCN(C)C

> <InChI_Code_QSARr>
InChI=1S/C9H23N3/c1-10(2)6-8-12(5)9-7-11(3)4/h6-9H2,1-5H3

> <InChI Key_QSARr>
UKODFQOELJFMII-UHFFFAOYSA-N

> <Salt_Solvent>


> <Salt_Solvent_ID>
0

> <MPID>
101444

> <Tr_1_Tst_0>
1

> <Ready_Biodeg>
0.0

$$$$
Row1410
  Mrv171c012251911052D          

  8  7  0  0  0  0            999 V2000
    0.0000   -0.4125    0.0000 C   0  0  0  0  0  0  0  0  0  0  0  0
    0.0000    0.4125    0.0000 N   0  0  0  0  0  0  0  0  0  0  0  0
   -0.7145    0.8250    0.0000 C   0  0  0  0  0  0  0  0  0  0  0  0
   -1.4289    0.4125    0.0000 C   0  0  0  0  0  0  0  0  0  0  0  0
   -2.1434    0.8250    0.0000 O   0  0  0  0  0  0  0  0  0  0  0  0
    0.7145    0.8250    0.0000 C   0  0  0  0  0  0  0  0  0  0  0  0
    1.4290    0.4125    0.0000 C   0  0  0  0  0  0  0  0  0  0  0  0
    2.1434    0.8250    0.0000 O   0  0  0  0  0  0  0  0  0  0  0  0
  1  2  1  0  0  0  0
  2  3  1  0  0  0  0
  3  4  1  0  0  0  0
  4  5  1  0  0  0  0
  2  6  1  0  0  0  0
  6  7  1  0  0  0  0
  7  8  1  0  0  0  0
M  END
> <ChemID>
201763

> <CAS>
105-59-9

> <Original_SMILES>
CN(CCO)CCO

> <preferred_name>
N-Methyldiethanolamine

> <dsstox_substance_id>
DTXSID8025591

> <dsstox_compound_id>
DTXCID605591

> <qc_level>


> <Canonical_QSARr>
CN(CCO)CCO

> <InChI_Code_QSARr>
InChI=1S/C5H13NO2/c1-6(2-4-7)3-5-8/h7-8H,2-5H2,1H3

> <InChI Key_QSARr>
CRVGTESFCCXCTH-UHFFFAOYSA-N

> <Salt_Solvent>


> <Salt_Solvent_ID>
0

> <MPID>
101445

> <Tr_1_Tst_0>
1

> <Ready_Biodeg>
0.0

$$$$
Row1411
  Mrv171c012251911052D          

  9  9  0  0  0  0            999 V2000
    0.0000   -2.4750    0.0000 C   0  0  0  0  0  0  0  0  0  0  0  0
    0.0000   -1.6500    0.0000 N   0  0  0  0  0  0  0  0  0  0  0  0
    0.7145   -1.2375    0.0000 C   0  0  0  0  0  0  0  0  0  0  0  0
    0.7145   -0.4125    0.0000 S   0  0  0  0  0  0  0  0  0  0  0  0
    0.0000   -0.0000    0.0000 C   0  0  0  0  0  0  0  0  0  0  0  0
    0.0000    0.8250    0.0000 S   0  0  0  0  0  0  0  0  0  0  0  0
   -0.7145   -0.4125    0.0000 N   0  0  0  0  0  0  0  0  0  0  0  0
   -1.4289   -0.0000    0.0000 C   0  0  0  0  0  0  0  0  0  0  0  0
   -0.7145   -1.2375    0.0000 C   0  0  0  0  0  0  0  0  0  0  0  0
  1  2  1  0  0  0  0
  3  2  1  0  0  0  0
  4  3  1  0  0  0  0
  5  4  1  0  0  0  0
  5  6  2  0  0  0  0
  7  5  1  0  0  0  0
  7  8  1  0  0  0  0
  9  7  1  0  0  0  0
  2  9  1  0  0  0  0
M  END
> <ChemID>
201766

> <CAS>
533-74-4

> <Original_SMILES>
CN1CSC(=S)N(C)C1

> <preferred_name>
Dazomet

> <dsstox_substance_id>
DTXSID7024902

> <dsstox_compound_id>
DTXCID004902

> <qc_level>


> <Canonical_QSARr>
CN1CSC(=S)N(C)C1

> <InChI_Code_QSARr>
InChI=1S/C5H10N2S2/c1-6-3-7(2)5(8)9-4-6/h3-4H2,1-2H3

> <InChI Key_QSARr>
QAYICIQNSGETAS-UHFFFAOYSA-N

> <Salt_Solvent>


> <Salt_Solvent_ID>
0

> <MPID>
101446

> <Tr_1_Tst_0>
1

> <Ready_Biodeg>
0.0

$$$$
Row1412
  Mrv171c012251911052D          

  8  8  0  0  0  0            999 V2000
    0.2871   -1.1117    0.0000 C   0  0  0  0  0  0  0  0  0  0  0  0
   -0.1978   -0.4442    0.0000 N   0  0  0  0  0  0  0  0  0  0  0  0
    0.0572    0.3404    0.0000 S   0  0  0  0  0  0  0  0  0  0  0  0
   -0.6103    0.8253    0.0000 C   0  0  0  0  0  0  0  0  0  0  0  0
   -0.6103    1.6503    0.0000 Cl  0  0  0  0  0  0  0  0  0  0  0  0
   -1.2777    0.3404    0.0000 C   0  0  0  0  0  0  0  0  0  0  0  0
   -1.0228   -0.4442    0.0000 C   0  0  0  0  0  0  0  0  0  0  0  0
   -1.5077   -1.1117    0.0000 O   0  0  0  0  0  0  0  0  0  0  0  0
  1  2  1  0  0  0  0
  3  2  1  0  0  0  0
  4  3  1  0  0  0  0
  4  5  1  0  0  0  0
  6  4  2  0  0  0  0
  7  6  1  0  0  0  0
  2  7  1  0  0  0  0
  7  8  2  0  0  0  0
M  END
> <ChemID>
201767

> <CAS>
26172-55-4

> <Original_SMILES>
CN1SC(Cl)=CC1=O

> <preferred_name>
5-Chloro-2-methyl-3(2H)-isothiazolone

> <dsstox_substance_id>
DTXSID9034286

> <dsstox_compound_id>
DTXCID7014286

> <qc_level>


> <Canonical_QSARr>
CN1SC(Cl)=CC1=O

> <InChI_Code_QSARr>
InChI=1S/C4H4ClNOS/c1-6-4(7)2-3(5)8-6/h2H,1H3

> <InChI Key_QSARr>
DHNRXBZYEKSXIM-UHFFFAOYSA-N

> <Salt_Solvent>


> <Salt_Solvent_ID>
0

> <MPID>
101447

> <Tr_1_Tst_0>
1

> <Ready_Biodeg>
0.0

$$$$
Row1413
  Mrv171c012251911052D          

  4  3  0  0  0  0            999 V2000
    1.9999   -0.5359    0.0000 C   0  0  0  0  0  0  0  0  0  0  0  0
    1.5874    0.1786    0.0000 N   0  0  0  0  0  0  0  0  0  0  0  0
    0.7624    0.1786    0.0000 C   0  0  0  0  0  0  0  0  0  0  0  0
   -0.0626    0.1786    0.0000 S   0  0  0  0  0  0  0  0  0  0  0  0
  1  2  1  0  0  0  0
  2  3  2  0  0  0  0
  3  4  2  0  0  0  0
M  END
> <ChemID>
201768

> <CAS>
556-61-6

> <Original_SMILES>
CN=C=S

> <preferred_name>
Methyl isothiocyanate

> <dsstox_substance_id>
DTXSID2027204

> <dsstox_compound_id>
DTXCID707204

> <qc_level>


> <Canonical_QSARr>
CN=C=S

> <InChI_Code_QSARr>
InChI=1S/C2H3NS/c1-3-2-4/h1H3

> <InChI Key_QSARr>
LGDSHSYDSCRFAB-UHFFFAOYSA-N

> <Salt_Solvent>


> <Salt_Solvent_ID>
0

> <MPID>
101448

> <Tr_1_Tst_0>
1

> <Ready_Biodeg>
0.0

$$$$
Row1414
  Mrv171c012251911052D          

  6  5  0  0  0  0            999 V2000
    1.2375   -0.7145    0.0000 C   0  0  0  0  0  0  0  0  0  0  0  0
    0.8250   -0.0000    0.0000 N   0  0  0  0  0  0  0  0  0  0  0  0
    0.0000    0.0000    0.0000 C   0  0  0  0  0  0  0  0  0  0  0  0
   -0.4125   -0.7145    0.0000 O   0  0  0  0  0  0  0  0  0  0  0  0
   -0.4125    0.7145    0.0000 N   0  0  0  0  0  0  0  0  0  0  0  0
   -1.2375    0.7145    0.0000 C   0  0  0  0  0  0  0  0  0  0  0  0
  1  2  1  0  0  0  0
  2  3  1  0  0  0  0
  3  4  2  0  0  0  0
  3  5  1  0  0  0  0
  5  6  1  0  0  0  0
M  END
> <ChemID>
201771

> <CAS>
96-31-1

> <Original_SMILES>
CNC(=O)NC

> <preferred_name>
N,N'-Dimethylurea

> <dsstox_substance_id>
DTXSID5025156

> <dsstox_compound_id>
DTXCID605156

> <qc_level>


> <Canonical_QSARr>
CNC(=O)NC

> <InChI_Code_QSARr>
InChI=1S/C3H8N2O/c1-4-3(6)5-2/h1-2H3,(H2,4,5,6)

> <InChI Key_QSARr>
MGJKQDOBUOMPEZ-UHFFFAOYSA-N

> <Salt_Solvent>


> <Salt_Solvent_ID>
0

> <MPID>
101449

> <Tr_1_Tst_0>
1

> <Ready_Biodeg>
0.0

$$$$
Row1415
  Mrv171c012251911052D          

  5  4  0  0  0  0            999 V2000
    1.1432    1.1432    0.0000 C   0  0  0  0  0  0  0  0  0  0  0  0
    1.5557    0.4287    0.0000 N   0  0  0  0  0  0  0  0  0  0  0  0
    1.1432   -0.2858    0.0000 C   0  0  0  0  0  0  0  0  0  0  0  0
    1.5557   -1.0003    0.0000 S   0  0  0  0  0  0  0  0  0  0  0  0
    0.3182   -0.2858    0.0000 S   0  0  0  0  0  0  0  0  0  0  0  0
  1  2  1  0  0  0  0
  2  3  1  0  0  0  0
  3  4  1  0  0  0  0
  3  5  2  0  0  0  0
M  END
> <ChemID>
201775

> <CAS>
144-54-7

> <Original_SMILES>
CNC(S)=S

> <preferred_name>
Ammonium methyldithiocarbamate

> <dsstox_substance_id>
DTXSID5043970

> <dsstox_compound_id>
DTXCID3023970

> <qc_level>


> <Canonical_QSARr>
CNC(S)=S

> <InChI_Code_QSARr>
InChI=1S/C2H5NS2/c1-3-2(4)5/h1H3,(H2,3,4,5)

> <InChI Key_QSARr>
HYVVJDQGXFXBRZ-UHFFFAOYSA-N

> <Salt_Solvent>


> <Salt_Solvent_ID>
0

> <MPID>
101450

> <Tr_1_Tst_0>
1

> <Ready_Biodeg>
0.0

$$$$
Row1416
  Mrv171c012251911052D          

  6  5  0  0  0  0            999 V2000
   -1.4424   -0.0872    0.0000 C   0  0  0  0  0  0  0  0  0  0  0  0
   -0.7280    0.3253    0.0000 N   0  0  0  0  0  0  0  0  0  0  0  0
   -0.0135   -0.0872    0.0000 C   0  0  0  0  0  0  0  0  0  0  0  0
    0.7010    0.3253    0.0000 C   0  0  0  0  0  0  0  0  0  0  0  0
    1.4154   -0.0872    0.0000 C   0  0  0  0  0  0  0  0  0  0  0  0
    2.1299    0.3253    0.0000 N   0  0  0  0  0  0  0  0  0  0  0  0
  1  2  1  0  0  0  0
  2  3  1  0  0  0  0
  3  4  1  0  0  0  0
  4  5  1  0  0  0  0
  5  6  1  0  0  0  0
M  END
> <ChemID>
201776

> <CAS>
6291-84-5

> <Original_SMILES>
CNCCCN

> <preferred_name>
N-Methyl-1,3-propanediamine

> <dsstox_substance_id>
DTXSID5064201

> <dsstox_compound_id>
DTXCID2043587

> <qc_level>


> <Canonical_QSARr>
CNCCCN

> <InChI_Code_QSARr>
InChI=1S/C4H12N2/c1-6-4-2-3-5/h6H,2-5H2,1H3

> <InChI Key_QSARr>
QHJABUZHRJTCAR-UHFFFAOYSA-N

> <Salt_Solvent>


> <Salt_Solvent_ID>
0

> <MPID>
101451

> <Tr_1_Tst_0>
1

> <Ready_Biodeg>
1.0

$$$$
Row1417
  Mrv171c012251911052D          

  5  4  0  0  0  0            999 V2000
    1.2375   -1.0002    0.0000 C   0  0  0  0  0  0  0  0  0  0  0  0
    0.8250   -0.2858    0.0000 N   0  0  0  0  0  0  0  0  0  0  0  0
   -0.0000   -0.2858    0.0000 C   0  0  0  0  0  0  0  0  0  0  0  0
   -0.4125    0.4287    0.0000 C   0  0  0  0  0  0  0  0  0  0  0  0
   -1.2375    0.4287    0.0000 O   0  0  0  0  0  0  0  0  0  0  0  0
  1  2  1  0  0  0  0
  2  3  1  0  0  0  0
  3  4  1  0  0  0  0
  4  5  1  0  0  0  0
M  END
> <ChemID>
201777

> <CAS>
109-83-1

> <Original_SMILES>
CNCCO

> <preferred_name>
N-Methylethanolamine

> <dsstox_substance_id>
DTXSID5025603

> <dsstox_compound_id>
DTXCID905603

> <qc_level>


> <Canonical_QSARr>
CNCCO

> <InChI_Code_QSARr>
InChI=1S/C3H9NO/c1-4-2-3-5/h4-5H,2-3H2,1H3

> <InChI Key_QSARr>
OPKOKAMJFNKNAS-UHFFFAOYSA-N

> <Salt_Solvent>


> <Salt_Solvent_ID>
0

> <MPID>
101452

> <Tr_1_Tst_0>
0

> <Ready_Biodeg>
1.0

$$$$
Row1418
  Mrv171c012251911052D          

  8  7  0  0  0  0            999 V2000
   -1.0201   -1.6638    0.0000 C   0  0  0  0  0  0  0  0  0  0  0  0
   -0.3057   -1.2513    0.0000 N   0  0  0  0  0  0  0  0  0  0  0  0
   -0.3057   -0.4263    0.0000 C   0  0  0  0  0  0  0  0  0  0  0  0
    0.4088   -0.0138    0.0000 C   0  0  0  0  0  0  0  0  0  0  0  0
    0.4088    0.8112    0.0000 S   0  0  0  0  0  0  0  0  0  0  0  0
    0.4088    1.6362    0.0000 O   0  0  0  0  0  0  0  0  0  0  0  0
    1.2338    0.8112    0.0000 O   0  0  0  0  0  0  0  0  0  0  0  0
   -0.4162    0.8112    0.0000 O   0  0  0  0  0  0  0  0  0  0  0  0
  1  2  1  0  0  0  0
  2  3  1  0  0  0  0
  3  4  1  0  0  0  0
  4  5  1  0  0  0  0
  5  6  1  0  0  0  0
  5  7  2  0  0  0  0
  5  8  2  0  0  0  0
M  END
> <ChemID>
201778

> <CAS>
107-68-6

> <Original_SMILES>
CNCCS(O)(=O)=O

> <preferred_name>
N-Methyltaurine

> <dsstox_substance_id>
DTXSID4025664

> <dsstox_compound_id>
DTXCID105664

> <qc_level>


> <Canonical_QSARr>
CNCCS(O)(=O)=O

> <InChI_Code_QSARr>
InChI=1S/C3H9NO3S/c1-4-2-3-8(5,6)7/h4H,2-3H2,1H3,(H,5,6,7)

> <InChI Key_QSARr>
SUZRRICLUFMAQD-UHFFFAOYSA-N

> <Salt_Solvent>


> <Salt_Solvent_ID>
0

> <MPID>
101453

> <Tr_1_Tst_0>
1

> <Ready_Biodeg>
1.0

$$$$
Row1419
  Mrv171c012251911052D          

 11 10  0  0  0  0            999 V2000
    0.1429   -1.9241    0.0000 C   0  0  0  0  0  0  0  0  0  0  0  0
    0.1429   -1.0991    0.0000 O   0  0  0  0  0  0  0  0  0  0  0  0
    0.8574   -0.6866    0.0000 C   0  0  0  0  0  0  0  0  0  0  0  0
    1.5719   -1.0991    0.0000 O   0  0  0  0  0  0  0  0  0  0  0  0
    0.8574    0.1384    0.0000 C   0  0  0  0  0  0  0  0  0  0  0  0
    1.5719    0.5509    0.0000 C   0  0  0  0  0  0  0  0  0  0  0  0
    2.2863    0.1384    0.0000 O   0  0  0  0  0  0  0  0  0  0  0  0
    1.5719    1.3759    0.0000 C   0  0  0  0  0  0  0  0  0  0  0  0
    1.5719    2.2009    0.0000 C   0  0  0  0  0  0  0  0  0  0  0  0
    2.3969    1.3759    0.0000 C   0  0  0  0  0  0  0  0  0  0  0  0
    0.7469    1.3759    0.0000 C   0  0  0  0  0  0  0  0  0  0  0  0
  1  2  1  0  0  0  0
  2  3  1  0  0  0  0
  3  4  2  0  0  0  0
  3  5  1  0  0  0  0
  5  6  1  0  0  0  0
  6  7  2  0  0  0  0
  6  8  1  0  0  0  0
  8  9  1  0  0  0  0
  8 10  1  0  0  0  0
  8 11  1  0  0  0  0
M  END
> <ChemID>
201785

> <CAS>
55107-14-7

> <Original_SMILES>
COC(=O)CC(=O)C(C)(C)C

> <preferred_name>
Methyl 4,4,4-trimethylacetoacetate

> <dsstox_substance_id>
DTXSID2042149

> <dsstox_compound_id>
DTXCID0022149

> <qc_level>


> <Canonical_QSARr>
COC(=O)CC(=O)C(C)(C)C

> <InChI_Code_QSARr>
InChI=1S/C8H14O3/c1-8(2,3)6(9)5-7(10)11-4/h5H2,1-4H3

> <InChI Key_QSARr>
XTXCFTMJPRXBBC-UHFFFAOYSA-N

> <Salt_Solvent>


> <Salt_Solvent_ID>
0

> <MPID>
101454

> <Tr_1_Tst_0>
0

> <Ready_Biodeg>
0.0

$$$$
Row1420
  Mrv171c012251911052D          

 10  9  0  0  0  0            999 V2000
   -2.0882   -0.2062    0.0000 C   0  0  0  0  0  0  0  0  0  0  0  0
   -1.3737    0.2063    0.0000 O   0  0  0  0  0  0  0  0  0  0  0  0
   -0.6592   -0.2062    0.0000 C   0  0  0  0  0  0  0  0  0  0  0  0
   -0.6592   -1.0312    0.0000 O   0  0  0  0  0  0  0  0  0  0  0  0
    0.0552    0.2063    0.0000 C   0  0  0  0  0  0  0  0  0  0  0  0
    0.7697   -0.2063    0.0000 C   0  0  0  0  0  0  0  0  0  0  0  0
    1.4842    0.2062    0.0000 C   0  0  0  0  0  0  0  0  0  0  0  0
    1.4842    1.0312    0.0000 O   0  0  0  0  0  0  0  0  0  0  0  0
    2.1987   -0.2063    0.0000 O   0  0  0  0  0  0  0  0  0  0  0  0
    2.9131    0.2062    0.0000 C   0  0  0  0  0  0  0  0  0  0  0  0
  1  2  1  0  0  0  0
  2  3  1  0  0  0  0
  3  4  2  0  0  0  0
  3  5  1  0  0  0  0
  5  6  1  0  0  0  0
  6  7  1  0  0  0  0
  7  8  2  0  0  0  0
  7  9  1  0  0  0  0
  9 10  1  0  0  0  0
M  END
> <ChemID>
201786

> <CAS>
106-65-0

> <Original_SMILES>
COC(=O)CCC(=O)OC

> <preferred_name>
Dimethyl succinate

> <dsstox_substance_id>
DTXSID5025152

> <dsstox_compound_id>
DTXCID005152

> <qc_level>


> <Canonical_QSARr>
COC(=O)CCC(=O)OC

> <InChI_Code_QSARr>
InChI=1S/C6H10O4/c1-9-5(7)3-4-6(8)10-2/h3-4H2,1-2H3

> <InChI Key_QSARr>
MUXOBHXGJLMRAB-UHFFFAOYSA-N

> <Salt_Solvent>


> <Salt_Solvent_ID>
0

> <MPID>
101455

> <Tr_1_Tst_0>
1

> <Ready_Biodeg>
1.0

$$$$
Row1421
  Mrv171c012251911052D          

 11 10  0  0  0  0            999 V2000
   -2.8579    0.0000    0.0000 C   0  0  0  0  0  0  0  0  0  0  0  0
   -2.1434   -0.4125    0.0000 O   0  0  0  0  0  0  0  0  0  0  0  0
   -1.4289    0.0000    0.0000 C   0  0  0  0  0  0  0  0  0  0  0  0
   -1.4289    0.8250    0.0000 O   0  0  0  0  0  0  0  0  0  0  0  0
   -0.7145   -0.4125    0.0000 C   0  0  0  0  0  0  0  0  0  0  0  0
    0.0000    0.0000    0.0000 C   0  0  0  0  0  0  0  0  0  0  0  0
    0.7145   -0.4125    0.0000 C   0  0  0  0  0  0  0  0  0  0  0  0
    1.4289    0.0000    0.0000 C   0  0  0  0  0  0  0  0  0  0  0  0
    1.4289    0.8250    0.0000 O   0  0  0  0  0  0  0  0  0  0  0  0
    2.1434   -0.4125    0.0000 O   0  0  0  0  0  0  0  0  0  0  0  0
    2.8579   -0.0000    0.0000 C   0  0  0  0  0  0  0  0  0  0  0  0
  1  2  1  0  0  0  0
  2  3  1  0  0  0  0
  3  4  2  0  0  0  0
  3  5  1  0  0  0  0
  5  6  1  0  0  0  0
  6  7  1  0  0  0  0
  7  8  1  0  0  0  0
  8  9  2  0  0  0  0
  8 10  1  0  0  0  0
 10 11  1  0  0  0  0
M  END
> <ChemID>
201787

> <CAS>
1119-40-0

> <Original_SMILES>
COC(=O)CCCC(=O)OC

> <preferred_name>
Dimethyl glutarate

> <dsstox_substance_id>
DTXSID3025122

> <dsstox_compound_id>
DTXCID105122

> <qc_level>


> <Canonical_QSARr>
COC(=O)CCCC(=O)OC

> <InChI_Code_QSARr>
InChI=1S/C7H12O4/c1-10-6(8)4-3-5-7(9)11-2/h3-5H2,1-2H3

> <InChI Key_QSARr>
XTDYIOOONNVFMA-UHFFFAOYSA-N

> <Salt_Solvent>


> <Salt_Solvent_ID>
0

> <MPID>
101456

> <Tr_1_Tst_0>
1

> <Ready_Biodeg>
1.0

$$$$
Row1422
  Mrv171c012251911052D          

 18 19  0  0  0  0            999 V2000
   -2.8976   -1.5813    0.0000 C   0  0  0  0  0  0  0  0  0  0  0  0
   -2.1831   -1.1688    0.0000 O   0  0  0  0  0  0  0  0  0  0  0  0
   -2.1831   -0.3438    0.0000 C   0  0  0  0  0  0  0  0  0  0  0  0
   -2.8976    0.0687    0.0000 O   0  0  0  0  0  0  0  0  0  0  0  0
   -1.4686    0.0688    0.0000 C   0  0  0  0  0  0  0  0  0  0  0  0
   -1.4686    0.8938    0.0000 C   0  0  0  0  0  0  0  0  0  0  0  0
   -0.7542    1.3063    0.0000 C   0  0  0  0  0  0  0  0  0  0  0  0
   -0.0397    0.8938    0.0000 C   0  0  0  0  0  0  0  0  0  0  0  0
    0.6748    1.3063    0.0000 C   0  0  0  0  0  0  0  0  0  0  0  0
    1.3893    0.8938    0.0000 C   0  0  0  0  0  0  0  0  0  0  0  0
    1.3893    0.0688    0.0000 C   0  0  0  0  0  0  0  0  0  0  0  0
    0.6748   -0.3437    0.0000 C   0  0  0  0  0  0  0  0  0  0  0  0
   -0.0397    0.0688    0.0000 C   0  0  0  0  0  0  0  0  0  0  0  0
   -0.7542   -0.3437    0.0000 C   0  0  0  0  0  0  0  0  0  0  0  0
    2.1037    1.3062    0.0000 C   0  0  0  0  0  0  0  0  0  0  0  0
    2.1037    2.1312    0.0000 O   0  0  0  0  0  0  0  0  0  0  0  0
    2.8182    0.8937    0.0000 O   0  0  0  0  0  0  0  0  0  0  0  0
    3.5327    1.3062    0.0000 C   0  0  0  0  0  0  0  0  0  0  0  0
  1  2  1  0  0  0  0
  2  3  1  0  0  0  0
  3  4  2  0  0  0  0
  3  5  1  0  0  0  0
  6  5  2  0  0  0  0
  7  6  1  0  0  0  0
  8  7  2  0  0  0  0
  8  9  1  0  0  0  0
  9 10  2  0  0  0  0
 10 11  1  0  0  0  0
 11 12  2  0  0  0  0
 12 13  1  0  0  0  0
 13  8  1  0  0  0  0
 14 13  2  0  0  0  0
  5 14  1  0  0  0  0
 10 15  1  0  0  0  0
 15 16  2  0  0  0  0
 15 17  1  0  0  0  0
 17 18  1  0  0  0  0
M  END
> <ChemID>
201790

> <CAS>
840-65-3

> <Original_SMILES>
COC(=O)c1cc2ccc(cc2cc1)C(=O)OC

> <preferred_name>
Dimethyl 2,6-naphthalenedicarboxylate

> <dsstox_substance_id>
DTXSID6029202

> <dsstox_compound_id>
DTXCID109202

> <qc_level>


> <Canonical_QSARr>
COC(=O)C1C=C2C=CC(=CC2=CC=1)C(=O)OC

> <InChI_Code_QSARr>
InChI=1S/C14H12O4/c1-17-13(15)11-5-3-10-8-12(14(16)18-2)6-4-9(10)7-11/h3-8H,1-2H3

> <InChI Key_QSARr>
GYUVMLBYMPKZAZ-UHFFFAOYSA-N

> <Salt_Solvent>


> <Salt_Solvent_ID>
0

> <MPID>
101457

> <Tr_1_Tst_0>
1

> <Ready_Biodeg>
0.0

$$$$
Row1423
  Mrv171c012251911052D          

  9  8  0  0  0  0            999 V2000
    0.6081    1.6884    0.0000 C   0  0  0  0  0  0  0  0  0  0  0  0
    0.1956    0.9739    0.0000 O   0  0  0  0  0  0  0  0  0  0  0  0
    0.6081    0.2594    0.0000 C   0  0  0  0  0  0  0  0  0  0  0  0
   -0.1064   -0.1531    0.0000 C   0  0  0  0  0  0  0  0  0  0  0  0
    1.3226    0.6719    0.0000 C   0  0  0  0  0  0  0  0  0  0  0  0
    1.0206   -0.4551    0.0000 C   0  0  0  0  0  0  0  0  0  0  0  0
    0.6081   -1.1695    0.0000 C   0  0  0  0  0  0  0  0  0  0  0  0
    1.0206   -1.8840    0.0000 C   0  0  0  0  0  0  0  0  0  0  0  0
   -0.2169   -1.1695    0.0000 O   0  0  0  0  0  0  0  0  0  0  0  0
  1  2  1  0  0  0  0
  2  3  1  0  0  0  0
  3  4  1  0  0  0  0
  3  5  1  0  0  0  0
  3  6  1  0  0  0  0
  6  7  1  0  0  0  0
  7  8  1  0  0  0  0
  7  9  2  0  0  0  0
M  END
> <ChemID>
201794

> <CAS>
107-70-0

> <Original_SMILES>
COC(C)(C)CC(C)=O

> <preferred_name>
4-Methoxy-4-methyl-2-pentanone

> <dsstox_substance_id>
DTXSID2025557

> <dsstox_compound_id>
DTXCID805557

> <qc_level>


> <Canonical_QSARr>
COC(C)(C)CC(C)=O

> <InChI_Code_QSARr>
InChI=1S/C7H14O2/c1-6(8)5-7(2,3)9-4/h5H2,1-4H3

> <InChI Key_QSARr>
KOKPBCHLPVDQTK-UHFFFAOYSA-N

> <Salt_Solvent>


> <Salt_Solvent_ID>
0

> <MPID>
101458

> <Tr_1_Tst_0>
1

> <Ready_Biodeg>
0.0

$$$$
Row1424
  Mrv171c012251911052D          

 11 10  0  0  0  0            999 V2000
    1.1607    2.3901    0.0000 C   0  0  0  0  0  0  0  0  0  0  0  0
    0.7482    1.6757    0.0000 O   0  0  0  0  0  0  0  0  0  0  0  0
    1.1607    0.9612    0.0000 C   0  0  0  0  0  0  0  0  0  0  0  0
    0.4463    0.5487    0.0000 C   0  0  0  0  0  0  0  0  0  0  0  0
    1.8752    1.3737    0.0000 C   0  0  0  0  0  0  0  0  0  0  0  0
    1.5732    0.2467    0.0000 C   0  0  0  0  0  0  0  0  0  0  0  0
    1.1607   -0.4677    0.0000 C   0  0  0  0  0  0  0  0  0  0  0  0
    1.5732   -1.1822    0.0000 O   0  0  0  0  0  0  0  0  0  0  0  0
    1.1607   -1.8967    0.0000 C   0  0  0  0  0  0  0  0  0  0  0  0
    1.5732   -2.6112    0.0000 C   0  0  0  0  0  0  0  0  0  0  0  0
    0.3357   -1.8967    0.0000 O   0  0  0  0  0  0  0  0  0  0  0  0
  1  2  1  0  0  0  0
  2  3  1  0  0  0  0
  3  4  1  0  0  0  0
  3  5  1  0  0  0  0
  3  6  1  0  0  0  0
  6  7  1  0  0  0  0
  7  8  1  0  0  0  0
  8  9  1  0  0  0  0
  9 10  1  0  0  0  0
  9 11  2  0  0  0  0
M  END
> <ChemID>
201795

> <CAS>
103429-90-9

> <Original_SMILES>
COC(C)(C)CCOC(C)=O

> <preferred_name>
1-Butanol, 3-methoxy-3-methyl-, acetate

> <dsstox_substance_id>
DTXSID30145852

> <dsstox_compound_id>
DTXCID2068343

> <qc_level>


> <Canonical_QSARr>
COC(C)(C)CCOC(C)=O

> <InChI_Code_QSARr>
InChI=1S/C8H16O3/c1-7(9)11-6-5-8(2,3)10-4/h5-6H2,1-4H3

> <InChI Key_QSARr>
RYNQKSJRFHJZTK-UHFFFAOYSA-N

> <Salt_Solvent>


> <Salt_Solvent_ID>
0

> <MPID>
101459

> <Tr_1_Tst_0>
1

> <Ready_Biodeg>
1.0

$$$$
Row1425
  Mrv171c012251911052D          

  5  4  0  0  0  0            999 V2000
    1.0003    0.7306    0.0000 C   0  0  0  0  0  0  0  0  0  0  0  0
    1.4128    0.0162    0.0000 O   0  0  0  0  0  0  0  0  0  0  0  0
    1.0003   -0.6983    0.0000 C   0  0  0  0  0  0  0  0  0  0  0  0
    1.4128   -1.4128    0.0000 C   0  0  0  0  0  0  0  0  0  0  0  0
    0.1753   -0.6983    0.0000 O   0  0  0  0  0  0  0  0  0  0  0  0
  1  2  1  0  0  0  0
  2  3  1  0  0  0  0
  3  4  1  0  0  0  0
  3  5  2  0  0  0  0
M  END
> <ChemID>
201796

> <CAS>
79-20-9

> <Original_SMILES>
COC(C)=O

> <preferred_name>
Methyl acetate

> <dsstox_substance_id>
DTXSID4021767

> <dsstox_compound_id>
DTXCID101767

> <qc_level>


> <Canonical_QSARr>
COC(C)=O

> <InChI_Code_QSARr>
InChI=1S/C3H6O2/c1-3(4)5-2/h1-2H3

> <InChI Key_QSARr>
KXKVLQRXCPHEJC-UHFFFAOYSA-N

> <Salt_Solvent>


> <Salt_Solvent_ID>
0

> <MPID>
101460

> <Tr_1_Tst_0>
1

> <Ready_Biodeg>
1.0

$$$$
Row1426
  Mrv171c012251911052D          

  6  5  0  0  0  0            999 V2000
   -1.4424   -0.0872    0.0000 C   0  0  0  0  0  0  0  0  0  0  0  0
   -0.7280    0.3253    0.0000 O   0  0  0  0  0  0  0  0  0  0  0  0
   -0.0135   -0.0872    0.0000 C   0  0  0  0  0  0  0  0  0  0  0  0
    0.7010    0.3253    0.0000 C   0  0  0  0  0  0  0  0  0  0  0  0
    1.4154   -0.0872    0.0000 C   0  0  0  0  0  0  0  0  0  0  0  0
    2.1299    0.3253    0.0000 N   0  0  0  0  0  0  0  0  0  0  0  0
  1  2  1  0  0  0  0
  2  3  1  0  0  0  0
  3  4  1  0  0  0  0
  4  5  1  0  0  0  0
  5  6  1  0  0  0  0
M  END
> <ChemID>
201800

> <CAS>
5332-73-0

> <Original_SMILES>
COCCCN

> <preferred_name>
3-Methoxypropylamine

> <dsstox_substance_id>
DTXSID7027596

> <dsstox_compound_id>
DTXCID807596

> <qc_level>


> <Canonical_QSARr>
COCCCN

> <InChI_Code_QSARr>
InChI=1S/C4H11NO/c1-6-4-2-3-5/h2-5H2,1H3

> <InChI Key_QSARr>
FAXDZWQIWUSWJH-UHFFFAOYSA-N

> <Salt_Solvent>


> <Salt_Solvent_ID>
0

> <MPID>
101461

> <Tr_1_Tst_0>
1

> <Ready_Biodeg>
0.0

$$$$
Row1427
  Mrv171c012251911052D          

  9  8  0  0  0  0            999 V2000
   -1.4290   -0.5500    0.0000 C   0  0  0  0  0  0  0  0  0  0  0  0
   -0.7145   -0.1375    0.0000 O   0  0  0  0  0  0  0  0  0  0  0  0
   -0.0000   -0.5500    0.0000 C   0  0  0  0  0  0  0  0  0  0  0  0
    0.7144   -0.1375    0.0000 C   0  0  0  0  0  0  0  0  0  0  0  0
    1.4289   -0.5500    0.0000 O   0  0  0  0  0  0  0  0  0  0  0  0
    2.1434   -0.1375    0.0000 C   0  0  0  0  0  0  0  0  0  0  0  0
    2.1434    0.6875    0.0000 O   0  0  0  0  0  0  0  0  0  0  0  0
    2.8578   -0.5500    0.0000 C   0  0  0  0  0  0  0  0  0  0  0  0
    3.5723   -0.1375    0.0000 C   0  0  0  0  0  0  0  0  0  0  0  0
  1  2  1  0  0  0  0
  2  3  1  0  0  0  0
  3  4  1  0  0  0  0
  4  5  1  0  0  0  0
  5  6  1  0  0  0  0
  6  7  2  0  0  0  0
  6  8  1  0  0  0  0
  8  9  2  0  0  0  0
M  END
> <ChemID>
201802

> <CAS>
3121-61-7

> <Original_SMILES>
COCCOC(=O)C=C

> <preferred_name>
2-Methoxyethyl acrylate

> <dsstox_substance_id>
DTXSID7025554

> <dsstox_compound_id>
DTXCID605554

> <qc_level>


> <Canonical_QSARr>
COCCOC(=O)C=C

> <InChI_Code_QSARr>
InChI=1S/C6H10O3/c1-3-6(7)9-5-4-8-2/h3H,1,4-5H2,2H3

> <InChI Key_QSARr>
HFCUBKYHMMPGBY-UHFFFAOYSA-N

> <Salt_Solvent>


> <Salt_Solvent_ID>
0

> <MPID>
101462

> <Tr_1_Tst_0>
1

> <Ready_Biodeg>
1.0

$$$$
Row1428
  Mrv171c012251911052D          

  9  8  0  0  0  0            999 V2000
   -3.5723   -0.1375    0.0000 C   0  0  0  0  0  0  0  0  0  0  0  0
   -2.8578   -0.5500    0.0000 O   0  0  0  0  0  0  0  0  0  0  0  0
   -2.1434   -0.1375    0.0000 C   0  0  0  0  0  0  0  0  0  0  0  0
   -1.4289   -0.5500    0.0000 C   0  0  0  0  0  0  0  0  0  0  0  0
   -0.7144   -0.1375    0.0000 O   0  0  0  0  0  0  0  0  0  0  0  0
    0.0001   -0.5500    0.0000 C   0  0  0  0  0  0  0  0  0  0  0  0
    0.7145   -0.1375    0.0000 C   0  0  0  0  0  0  0  0  0  0  0  0
    1.4290   -0.5500    0.0000 O   0  0  0  0  0  0  0  0  0  0  0  0
    2.1435   -0.1375    0.0000 C   0  0  0  0  0  0  0  0  0  0  0  0
  1  2  1  0  0  0  0
  2  3  1  0  0  0  0
  3  4  1  0  0  0  0
  4  5  1  0  0  0  0
  5  6  1  0  0  0  0
  6  7  1  0  0  0  0
  7  8  1  0  0  0  0
  8  9  1  0  0  0  0
M  END
> <ChemID>
201804

> <CAS>
111-96-6

> <Original_SMILES>
COCCOCCOC

> <preferred_name>
Bis(2-methoxyethyl) ether

> <dsstox_substance_id>
DTXSID1024621

> <dsstox_compound_id>
DTXCID604621

> <qc_level>


> <Canonical_QSARr>
COCCOCCOC

> <InChI_Code_QSARr>
InChI=1S/C6H14O3/c1-7-3-5-9-6-4-8-2/h3-6H2,1-2H3

> <InChI Key_QSARr>
SBZXBUIDTXKZTM-UHFFFAOYSA-N

> <Salt_Solvent>


> <Salt_Solvent_ID>
0

> <MPID>
101463

> <Tr_1_Tst_0>
1

> <Ready_Biodeg>
0.0

$$$$
Row1429
  Mrv171c012251911052D          

 11 10  0  0  0  0            999 V2000
   -3.5723   -0.0375    0.0000 C   0  0  0  0  0  0  0  0  0  0  0  0
   -2.8579   -0.4500    0.0000 O   0  0  0  0  0  0  0  0  0  0  0  0
   -2.1434   -0.0375    0.0000 C   0  0  0  0  0  0  0  0  0  0  0  0
   -1.4289   -0.4500    0.0000 C   0  0  0  0  0  0  0  0  0  0  0  0
   -0.7145   -0.0375    0.0000 O   0  0  0  0  0  0  0  0  0  0  0  0
    0.0000   -0.4500    0.0000 C   0  0  0  0  0  0  0  0  0  0  0  0
    0.7145   -0.0375    0.0000 C   0  0  0  0  0  0  0  0  0  0  0  0
    1.4290   -0.4500    0.0000 O   0  0  0  0  0  0  0  0  0  0  0  0
    2.1434   -0.0375    0.0000 C   0  0  0  0  0  0  0  0  0  0  0  0
    2.8579   -0.4500    0.0000 C   0  0  0  0  0  0  0  0  0  0  0  0
    3.5724   -0.0375    0.0000 O   0  0  0  0  0  0  0  0  0  0  0  0
  1  2  1  0  0  0  0
  2  3  1  0  0  0  0
  3  4  1  0  0  0  0
  4  5  1  0  0  0  0
  5  6  1  0  0  0  0
  6  7  1  0  0  0  0
  7  8  1  0  0  0  0
  8  9  1  0  0  0  0
  9 10  1  0  0  0  0
 10 11  1  0  0  0  0
M  END
> <ChemID>
201805

> <CAS>
112-35-6

> <Original_SMILES>
COCCOCCOCCO

> <preferred_name>
2-[2-(2-Methoxyethoxy)ethoxy]ethanol

> <dsstox_substance_id>
DTXSID5026912

> <dsstox_compound_id>
DTXCID506912

> <qc_level>


> <Canonical_QSARr>
COCCOCCOCCO

> <InChI_Code_QSARr>
InChI=1S/C7H16O4/c1-9-4-5-11-7-6-10-3-2-8/h8H,2-7H2,1H3

> <InChI Key_QSARr>
JLGLQAWTXXGVEM-UHFFFAOYSA-N

> <Salt_Solvent>


> <Salt_Solvent_ID>
0

> <MPID>
101464

> <Tr_1_Tst_0>
0

> <Ready_Biodeg>
1.0

$$$$
Row1430
  Mrv171c012251911052D          

 27 27  0  0  0  0            999 V2000
    2.2493   -0.5958    0.0000 C   0  0  0  0  0  0  0  0  0  0  0  0
    1.5348   -0.1833    0.0000 O   0  0  0  0  0  0  0  0  0  0  0  0
    0.8204   -0.5958    0.0000 C   0  0  0  0  0  0  0  0  0  0  0  0
    0.1059   -0.1833    0.0000 N   0  0  0  0  0  0  0  0  0  0  0  0
    0.1059    0.6417    0.0000 C   0  0  0  0  0  0  0  0  0  0  0  0
   -0.6086    1.0542    0.0000 O   0  0  0  0  0  0  0  0  0  0  0  0
   -0.6086    1.8792    0.0000 C   0  0  0  0  0  0  0  0  0  0  0  0
   -0.6086   -0.5958    0.0000 C   0  0  0  0  0  0  0  0  0  0  0  0
   -1.3230   -0.1833    0.0000 N   0  0  0  0  0  0  0  0  0  0  0  0
   -2.0375   -0.5958    0.0000 C   0  0  0  0  0  0  0  0  0  0  0  0
   -2.7520   -0.1833    0.0000 N   0  0  0  0  0  0  0  0  0  0  0  0
   -3.4664   -0.5958    0.0000 C   0  0  0  0  0  0  0  0  0  0  0  0
   -4.1809   -0.1833    0.0000 O   0  0  0  0  0  0  0  0  0  0  0  0
   -4.8954   -0.5958    0.0000 C   0  0  0  0  0  0  0  0  0  0  0  0
   -2.7520    0.6417    0.0000 C   0  0  0  0  0  0  0  0  0  0  0  0
   -3.4664    1.0542    0.0000 O   0  0  0  0  0  0  0  0  0  0  0  0
   -3.4664    1.8792    0.0000 C   0  0  0  0  0  0  0  0  0  0  0  0
   -2.0375   -1.4208    0.0000 N   0  0  0  0  0  0  0  0  0  0  0  0
   -1.3230   -1.8333    0.0000 C   0  0  0  0  0  0  0  0  0  0  0  0
   -1.3230   -2.6583    0.0000 N   0  0  0  0  0  0  0  0  0  0  0  0
   -2.0375   -3.0708    0.0000 C   0  0  0  0  0  0  0  0  0  0  0  0
   -2.7520   -2.6583    0.0000 O   0  0  0  0  0  0  0  0  0  0  0  0
   -3.4664   -3.0708    0.0000 C   0  0  0  0  0  0  0  0  0  0  0  0
   -0.6086   -3.0708    0.0000 C   0  0  0  0  0  0  0  0  0  0  0  0
    0.1059   -2.6583    0.0000 O   0  0  0  0  0  0  0  0  0  0  0  0
    0.8204   -3.0708    0.0000 C   0  0  0  0  0  0  0  0  0  0  0  0
   -0.6086   -1.4208    0.0000 N   0  0  0  0  0  0  0  0  0  0  0  0
  1  2  1  0  0  0  0
  2  3  1  0  0  0  0
  3  4  1  0  0  0  0
  4  5  1  0  0  0  0
  5  6  1  0  0  0  0
  6  7  1  0  0  0  0
  4  8  1  0  0  0  0
  9  8  2  0  0  0  0
 10  9  1  0  0  0  0
 10 11  1  0  0  0  0
 11 12  1  0  0  0  0
 12 13  1  0  0  0  0
 13 14  1  0  0  0  0
 11 15  1  0  0  0  0
 15 16  1  0  0  0  0
 16 17  1  0  0  0  0
 18 10  2  0  0  0  0
 19 18  1  0  0  0  0
 19 20  1  0  0  0  0
 20 21  1  0  0  0  0
 21 22  1  0  0  0  0
 22 23  1  0  0  0  0
 20 24  1  0  0  0  0
 24 25  1  0  0  0  0
 25 26  1  0  0  0  0
 27 19  2  0  0  0  0
  8 27  1  0  0  0  0
M  END
> <ChemID>
201806

> <CAS>
3089-11-0

> <Original_SMILES>
COCN(COC)c1[n]c([n]c([n]1)N(COC)COC)N(COC)COC

> <preferred_name>
N,N,N',N',N'',N''-Hexakis(methoxymethyl)-1,3,5-triazine-2,4,6-triamine

> <dsstox_substance_id>
DTXSID9027520

> <dsstox_compound_id>
DTXCID307520

> <qc_level>


> <Canonical_QSARr>
COCN(COC)C1N=C(N=C(N=1)N(COC)COC)N(COC)COC

> <InChI_Code_QSARr>
InChI=1S/C15H30N6O6/c1-22-7-19(8-23-2)13-16-14(20(9-24-3)10-25-4)18-15(17-13)21(11-26-5)12-27-6/h7-12H2,1-6H3

> <InChI Key_QSARr>
BNCADMBVWNPPIZ-UHFFFAOYSA-N

> <Salt_Solvent>


> <Salt_Solvent_ID>
0

> <MPID>
101465

> <Tr_1_Tst_0>
1

> <Ready_Biodeg>
0.0

$$$$
Row1431
  Mrv171c012251911052D          

  6  5  0  0  0  0            999 V2000
    1.3063   -0.5954    0.0000 C   0  0  0  0  0  0  0  0  0  0  0  0
    0.8938    0.1191    0.0000 O   0  0  0  0  0  0  0  0  0  0  0  0
    0.0688    0.1191    0.0000 P   0  0  0  0  0  0  0  0  0  0  0  0
   -0.3437   -0.5954    0.0000 O   0  0  0  0  0  0  0  0  0  0  0  0
   -0.3437    0.8335    0.0000 O   0  0  0  0  0  0  0  0  0  0  0  0
   -1.1687    0.8335    0.0000 C   0  0  0  0  0  0  0  0  0  0  0  0
  1  2  1  0  0  0  0
  2  3  1  0  0  0  0
  3  4  2  0  0  0  0
  3  5  1  0  0  0  0
  5  6  1  0  0  0  0
M  END
> <ChemID>
201810

> <CAS>
868-85-9

> <Original_SMILES>
COP(=O)OC

> <preferred_name>
Dimethyl hydrogen phosphite

> <dsstox_substance_id>
DTXSID5020493

> <dsstox_compound_id>
DTXCID10493

> <qc_level>


> <Canonical_QSARr>
COP(=O)OC

> <InChI_Code_QSARr>
InChI=1S/C2H7O3P/c1-4-6(3)5-2/h6H,1-2H3

> <InChI Key_QSARr>
HZCDANOFLILNSA-UHFFFAOYSA-N

> <Salt_Solvent>


> <Salt_Solvent_ID>
0

> <MPID>
101466

> <Tr_1_Tst_0>
1

> <Ready_Biodeg>
0.0

$$$$
Row1432
  Mrv171c012251911052D          

 15 15  0  0  0  0            999 V2000
   -2.2102   -2.1617    0.0000 C   0  0  0  0  0  0  0  0  0  0  0  0
   -2.2102   -1.3367    0.0000 O   0  0  0  0  0  0  0  0  0  0  0  0
   -1.4958   -0.9242    0.0000 P   0  0  0  0  0  0  0  0  0  0  0  0
   -1.0833   -1.6387    0.0000 S   0  0  0  0  0  0  0  0  0  0  0  0
   -1.9083   -0.2097    0.0000 O   0  0  0  0  0  0  0  0  0  0  0  0
   -2.7333   -0.2097    0.0000 C   0  0  0  0  0  0  0  0  0  0  0  0
   -0.7813   -0.5117    0.0000 O   0  0  0  0  0  0  0  0  0  0  0  0
   -0.7813    0.3133    0.0000 C   0  0  0  0  0  0  0  0  0  0  0  0
   -0.0668    0.7258    0.0000 C   0  0  0  0  0  0  0  0  0  0  0  0
   -0.0668    1.5508    0.0000 C   0  0  0  0  0  0  0  0  0  0  0  0
   -0.7813    1.9633    0.0000 C   0  0  0  0  0  0  0  0  0  0  0  0
   -0.7813    2.7883    0.0000 C   0  0  0  0  0  0  0  0  0  0  0  0
   -0.7813    3.6133    0.0000 N   0  0  0  0  0  0  0  0  0  0  0  0
   -1.4958    1.5508    0.0000 C   0  0  0  0  0  0  0  0  0  0  0  0
   -1.4958    0.7258    0.0000 C   0  0  0  0  0  0  0  0  0  0  0  0
  1  2  1  0  0  0  0
  2  3  1  0  0  0  0
  3  4  2  0  0  0  0
  3  5  1  0  0  0  0
  5  6  1  0  0  0  0
  3  7  1  0  0  0  0
  7  8  1  0  0  0  0
  9  8  2  0  0  0  0
 10  9  1  0  0  0  0
 11 10  2  0  0  0  0
 11 12  1  0  0  0  0
 12 13  3  0  0  0  0
 14 11  1  0  0  0  0
 15 14  2  0  0  0  0
  8 15  1  0  0  0  0
M  END
> <ChemID>
201811

> <CAS>
2636-26-2

> <Original_SMILES>
COP(=S)(Oc1ccc(cc1)C#N)OC

> <preferred_name>
Cyanophos

> <dsstox_substance_id>
DTXSID0041806

> <dsstox_compound_id>
DTXCID8021806

> <qc_level>


> <Canonical_QSARr>
COP(=S)(OC1C=CC(=CC=1)C#N)OC

> <InChI_Code_QSARr>
InChI=1S/C9H10NO3PS/c1-11-14(15,12-2)13-9-5-3-8(7-10)4-6-9/h3-6H,1-2H3

> <InChI Key_QSARr>
SCKHCCSZFPSHGR-UHFFFAOYSA-N

> <Salt_Solvent>


> <Salt_Solvent_ID>
0

> <MPID>
101467

> <Tr_1_Tst_0>
1

> <Ready_Biodeg>
0.0

$$$$
Row1433
  Mrv171c012251911052D          

 13 14  0  0  0  0            999 V2000
   -1.2805    0.8730    0.0000 C   0  0  0  0  0  0  0  0  0  0  0  0
   -0.9983    0.0978    0.0000 O   0  0  0  0  0  0  0  0  0  0  0  0
   -0.1859   -0.0455    0.0000 P   0  0  0  0  0  0  0  0  0  0  0  0
   -0.4680   -0.8207    0.0000 S   0  0  0  0  0  0  0  0  0  0  0  0
   -0.1859    0.7795    0.0000 O   0  0  0  0  0  0  0  0  0  0  0  0
    0.5286    1.1920    0.0000 C   0  0  0  0  0  0  0  0  0  0  0  0
    1.2431    0.7795    0.0000 C   0  0  0  0  0  0  0  0  0  0  0  0
    1.9575    1.1920    0.0000 C   0  0  0  0  0  0  0  0  0  0  0  0
    2.6720    0.7795    0.0000 C   0  0  0  0  0  0  0  0  0  0  0  0
    2.6720   -0.0455    0.0000 C   0  0  0  0  0  0  0  0  0  0  0  0
    1.9575   -0.4580    0.0000 C   0  0  0  0  0  0  0  0  0  0  0  0
    1.2431   -0.0455    0.0000 C   0  0  0  0  0  0  0  0  0  0  0  0
    0.5286   -0.4580    0.0000 O   0  0  0  0  0  0  0  0  0  0  0  0
  1  2  1  0  0  0  0
  2  3  1  0  0  0  0
  3  4  2  0  0  0  0
  5  3  1  0  0  0  0
  6  5  1  0  0  0  0
  7  6  1  0  0  0  0
  7  8  2  0  0  0  0
  8  9  1  0  0  0  0
  9 10  2  0  0  0  0
 10 11  1  0  0  0  0
 11 12  2  0  0  0  0
 12  7  1  0  0  0  0
 13 12  1  0  0  0  0
  3 13  1  0  0  0  0
M  END
> <ChemID>
201812

> <CAS>
3811-49-2

> <Original_SMILES>
COP1(=S)OCc2ccccc2O1

> <preferred_name>
Dioxabenzofos

> <dsstox_substance_id>
DTXSID7041885

> <dsstox_compound_id>
DTXCID5021885

> <qc_level>


> <Canonical_QSARr>
COP1(=S)OCC2=CC=CC=C2O1

> <InChI_Code_QSARr>
InChI=1S/C8H9O3PS/c1-9-12(13)10-6-7-4-2-3-5-8(7)11-12/h2-5H,6H2,1H3

> <InChI Key_QSARr>
OUNSASXJZHBGAI-UHFFFAOYSA-N

> <Salt_Solvent>


> <Salt_Solvent_ID>
0

> <MPID>
101468

> <Tr_1_Tst_0>
1

> <Ready_Biodeg>
0.0

$$$$
Row1434
  Mrv171c012251911052D          

 16 18  0  0  0  0            999 V2000
    0.3777    2.1591    0.0000 C   0  0  0  0  0  0  0  0  0  0  0  0
    1.0922    1.7466    0.0000 O   0  0  0  0  0  0  0  0  0  0  0  0
    1.0922    0.9216    0.0000 C   0  0  0  0  0  0  0  0  0  0  0  0
    1.8066    0.5091    0.0000 C   0  0  0  0  0  0  0  0  0  0  0  0
    2.5913    0.7640    0.0000 O   0  0  0  0  0  0  0  0  0  0  0  0
    3.0762    0.0966    0.0000 C   0  0  0  0  0  0  0  0  0  0  0  0
    2.5913   -0.5709    0.0000 C   0  0  0  0  0  0  0  0  0  0  0  0
    1.8066   -0.3159    0.0000 C   0  0  0  0  0  0  0  0  0  0  0  0
    1.0922   -0.7284    0.0000 C   0  0  0  0  0  0  0  0  0  0  0  0
    0.3777   -0.3159    0.0000 C   0  0  0  0  0  0  0  0  0  0  0  0
   -0.3368   -0.7284    0.0000 C   0  0  0  0  0  0  0  0  0  0  0  0
   -1.0512   -0.3159    0.0000 C   0  0  0  0  0  0  0  0  0  0  0  0
   -1.0512    0.5091    0.0000 C   0  0  0  0  0  0  0  0  0  0  0  0
   -1.7657    0.9216    0.0000 O   0  0  0  0  0  0  0  0  0  0  0  0
   -0.3368    0.9216    0.0000 O   0  0  0  0  0  0  0  0  0  0  0  0
    0.3777    0.5091    0.0000 C   0  0  0  0  0  0  0  0  0  0  0  0
  1  2  1  0  0  0  0
  2  3  1  0  0  0  0
  4  3  2  0  0  0  0
  4  5  1  0  0  0  0
  5  6  1  0  0  0  0
  6  7  2  0  0  0  0
  7  8  1  0  0  0  0
  8  4  1  0  0  0  0
  9  8  2  0  0  0  0
 10  9  1  0  0  0  0
 10 11  1  0  0  0  0
 11 12  2  0  0  0  0
 12 13  1  0  0  0  0
 13 14  2  0  0  0  0
 13 15  1  0  0  0  0
 15 16  1  0  0  0  0
  3 16  1  0  0  0  0
 16 10  2  0  0  0  0
M  END
> <ChemID>
201813

> <CAS>
298-81-7

> <Original_SMILES>
COc1c2OC(=O)C=Cc2cc2ccoc21

> <preferred_name>
8-Methoxypsoralen

> <dsstox_substance_id>
DTXSID8020830

> <dsstox_compound_id>
DTXCID40830

> <qc_level>


> <Canonical_QSARr>
COC1C2OC(=O)C=CC=2C=C2C=COC2=1

> <InChI_Code_QSARr>
InChI=1S/C12H8O4/c1-14-12-10-8(4-5-15-10)6-7-2-3-9(13)16-11(7)12/h2-6H,1H3

> <InChI Key_QSARr>
QXKHYNVANLEOEG-UHFFFAOYSA-N

> <Salt_Solvent>


> <Salt_Solvent_ID>
0

> <MPID>
101469

> <Tr_1_Tst_0>
0

> <Ready_Biodeg>
0.0

$$$$
Row1435
  Mrv171c012251911052D          

 13 13  0  0  0  0            999 V2000
    0.9343   -2.6971    0.0000 C   0  0  0  0  0  0  0  0  0  0  0  0
    1.6488   -2.2846    0.0000 O   0  0  0  0  0  0  0  0  0  0  0  0
    1.6488   -1.4596    0.0000 C   0  0  0  0  0  0  0  0  0  0  0  0
    2.3633   -1.0471    0.0000 C   0  0  0  0  0  0  0  0  0  0  0  0
    2.3633   -0.2221    0.0000 C   0  0  0  0  0  0  0  0  0  0  0  0
    1.6488    0.1904    0.0000 C   0  0  0  0  0  0  0  0  0  0  0  0
    1.6488    1.0154    0.0000 O   0  0  0  0  0  0  0  0  0  0  0  0
    0.9343   -0.2221    0.0000 C   0  0  0  0  0  0  0  0  0  0  0  0
    0.2199    0.1904    0.0000 C   0  0  0  0  0  0  0  0  0  0  0  0
   -0.4946    0.6029    0.0000 C   0  0  0  0  0  0  0  0  0  0  0  0
   -0.1926   -0.5241    0.0000 C   0  0  0  0  0  0  0  0  0  0  0  0
    0.6324    0.9048    0.0000 C   0  0  0  0  0  0  0  0  0  0  0  0
    0.9343   -1.0471    0.0000 C   0  0  0  0  0  0  0  0  0  0  0  0
  1  2  1  0  0  0  0
  2  3  1  0  0  0  0
  4  3  2  0  0  0  0
  5  4  1  0  0  0  0
  6  5  2  0  0  0  0
  6  7  1  0  0  0  0
  8  6  1  0  0  0  0
  8  9  1  0  0  0  0
  9 10  1  0  0  0  0
  9 11  1  0  0  0  0
  9 12  1  0  0  0  0
 13  8  2  0  0  0  0
  3 13  1  0  0  0  0
M  END
> <ChemID>
201817

> <CAS>
121-00-6

> <Original_SMILES>
COc1cc(c(O)cc1)C(C)(C)C

> <preferred_name>


> <dsstox_substance_id>
DTXSID7040788

> <dsstox_compound_id>
DTXCID90215

> <qc_level>


> <Canonical_QSARr>
COC1C=C(C(O)=CC=1)C(C)(C)C

> <InChI_Code_QSARr>
InChI=1S/C11H16O2/c1-11(2,3)9-7-8(13-4)5-6-10(9)12/h5-7,12H,1-4H3

> <InChI Key_QSARr>
MRBKEAMVRSLQPH-UHFFFAOYSA-N

> <Salt_Solvent>


> <Salt_Solvent_ID>
0

> <MPID>
101470

> <Tr_1_Tst_0>
0

> <Ready_Biodeg>
0.0

$$$$
Row1436
  Mrv171c012251911052D          

 10 10  0  0  0  0            999 V2000
   -1.3966   -2.0625    0.0000 C   0  0  0  0  0  0  0  0  0  0  0  0
   -0.6822   -1.6500    0.0000 O   0  0  0  0  0  0  0  0  0  0  0  0
   -0.6822   -0.8250    0.0000 C   0  0  0  0  0  0  0  0  0  0  0  0
    0.0323   -0.4125    0.0000 C   0  0  0  0  0  0  0  0  0  0  0  0
    0.0323    0.4125    0.0000 C   0  0  0  0  0  0  0  0  0  0  0  0
   -0.6822    0.8250    0.0000 C   0  0  0  0  0  0  0  0  0  0  0  0
   -0.6822    1.6500    0.0000 C   0  0  0  0  0  0  0  0  0  0  0  0
   -1.3966    2.0625    0.0000 O   0  0  0  0  0  0  0  0  0  0  0  0
   -1.3966    0.4125    0.0000 C   0  0  0  0  0  0  0  0  0  0  0  0
   -1.3966   -0.4125    0.0000 C   0  0  0  0  0  0  0  0  0  0  0  0
  1  2  1  0  0  0  0
  2  3  1  0  0  0  0
  4  3  2  0  0  0  0
  5  4  1  0  0  0  0
  6  5  2  0  0  0  0
  6  7  1  0  0  0  0
  7  8  2  0  0  0  0
  9  6  1  0  0  0  0
 10  9  2  0  0  0  0
  3 10  1  0  0  0  0
M  END
> <ChemID>
201820

> <CAS>
123-11-5

> <Original_SMILES>
COc1ccc(C=O)cc1

> <preferred_name>
4-Methoxybenzaldehyde

> <dsstox_substance_id>
DTXSID2026997

> <dsstox_compound_id>
DTXCID906997

> <qc_level>


> <Canonical_QSARr>
COC1C=CC(C=O)=CC=1

> <InChI_Code_QSARr>
InChI=1S/C8H8O2/c1-10-8-4-2-7(6-9)3-5-8/h2-6H,1H3

> <InChI Key_QSARr>
ZRSNZINYAWTAHE-UHFFFAOYSA-N

> <Salt_Solvent>


> <Salt_Solvent_ID>
0

> <MPID>
101471

> <Tr_1_Tst_0>
1

> <Ready_Biodeg>
1.0

$$$$
Row1437
  Mrv171c012251911052D          

 12 12  0  0  0  0            999 V2000
   -0.6666   -2.3921    0.0000 C   0  0  0  0  0  0  0  0  0  0  0  0
    0.0479   -1.9796    0.0000 O   0  0  0  0  0  0  0  0  0  0  0  0
    0.0479   -1.1546    0.0000 C   0  0  0  0  0  0  0  0  0  0  0  0
    0.7623   -0.7421    0.0000 C   0  0  0  0  0  0  0  0  0  0  0  0
    0.7623    0.0829    0.0000 C   0  0  0  0  0  0  0  0  0  0  0  0
    0.0479    0.4954    0.0000 C   0  0  0  0  0  0  0  0  0  0  0  0
    0.0479    1.3204    0.0000 C   0  0  0  0  0  0  0  0  0  0  0  0
   -0.6666    1.7329    0.0000 O   0  0  0  0  0  0  0  0  0  0  0  0
   -0.6666    0.0829    0.0000 C   0  0  0  0  0  0  0  0  0  0  0  0
   -0.6666   -0.7421    0.0000 C   0  0  0  0  0  0  0  0  0  0  0  0
   -1.3811   -1.1546    0.0000 O   0  0  0  0  0  0  0  0  0  0  0  0
   -1.3811   -1.9796    0.0000 C   0  0  0  0  0  0  0  0  0  0  0  0
  1  2  1  0  0  0  0
  2  3  1  0  0  0  0
  4  3  2  0  0  0  0
  5  4  1  0  0  0  0
  6  5  2  0  0  0  0
  6  7  1  0  0  0  0
  7  8  2  0  0  0  0
  9  6  1  0  0  0  0
 10  9  2  0  0  0  0
  3 10  1  0  0  0  0
 10 11  1  0  0  0  0
 11 12  1  0  0  0  0
M  END
> <ChemID>
201821

> <CAS>
120-14-9

> <Original_SMILES>
COc1ccc(C=O)cc1OC

> <preferred_name>
Veratraldehyde

> <dsstox_substance_id>
DTXSID7026285

> <dsstox_compound_id>
DTXCID406285

> <qc_level>


> <Canonical_QSARr>
COC1=CC=C(C=O)C=C1OC

> <InChI_Code_QSARr>
InChI=1S/C9H10O3/c1-11-8-4-3-7(6-10)5-9(8)12-2/h3-6H,1-2H3

> <InChI Key_QSARr>
WJUFSDZVCOTFON-UHFFFAOYSA-N

> <Salt_Solvent>


> <Salt_Solvent_ID>
0

> <MPID>
101472

> <Tr_1_Tst_0>
0

> <Ready_Biodeg>
1.0

$$$$
Row1438
  Mrv171c012251911052D          

 16 16  0  0  0  0            999 V2000
   -3.1704   -0.4899    0.0000 C   0  0  0  0  0  0  0  0  0  0  0  0
   -2.4560   -0.9024    0.0000 C   0  0  0  0  0  0  0  0  0  0  0  0
   -1.7415   -0.4899    0.0000 O   0  0  0  0  0  0  0  0  0  0  0  0
   -1.0270   -0.9024    0.0000 C   0  0  0  0  0  0  0  0  0  0  0  0
   -1.0270   -1.7274    0.0000 O   0  0  0  0  0  0  0  0  0  0  0  0
   -0.3125   -0.4899    0.0000 C   0  0  0  0  0  0  0  0  0  0  0  0
    0.4019   -0.9024    0.0000 C   0  0  0  0  0  0  0  0  0  0  0  0
    0.4019   -1.7274    0.0000 O   0  0  0  0  0  0  0  0  0  0  0  0
    1.1164   -0.4899    0.0000 C   0  0  0  0  0  0  0  0  0  0  0  0
    1.8309   -0.9024    0.0000 C   0  0  0  0  0  0  0  0  0  0  0  0
    2.5453   -0.4899    0.0000 C   0  0  0  0  0  0  0  0  0  0  0  0
    2.5453    0.3351    0.0000 C   0  0  0  0  0  0  0  0  0  0  0  0
    3.2598    0.7476    0.0000 O   0  0  0  0  0  0  0  0  0  0  0  0
    3.2598    1.5726    0.0000 C   0  0  0  0  0  0  0  0  0  0  0  0
    1.8309    0.7476    0.0000 C   0  0  0  0  0  0  0  0  0  0  0  0
    1.1164    0.3351    0.0000 C   0  0  0  0  0  0  0  0  0  0  0  0
  1  2  1  0  0  0  0
  2  3  1  0  0  0  0
  3  4  1  0  0  0  0
  4  5  2  0  0  0  0
  4  6  1  0  0  0  0
  6  7  1  0  0  0  0
  7  8  2  0  0  0  0
  7  9  1  0  0  0  0
 10  9  2  0  0  0  0
 11 10  1  0  0  0  0
 12 11  2  0  0  0  0
 12 13  1  0  0  0  0
 13 14  1  0  0  0  0
 15 12  1  0  0  0  0
 16 15  2  0  0  0  0
  9 16  1  0  0  0  0
M  END
> <ChemID>
201825

> <CAS>
2881-83-6

> <Original_SMILES>
COc1ccc(cc1)C(=O)CC(=O)OCC

> <preferred_name>
Benzenepropanoic acid, 4-methoxy-.beta.-oxo-, ethyl ester

> <dsstox_substance_id>
DTXSID5062683

> <dsstox_compound_id>
DTXCID3037880

> <qc_level>


> <Canonical_QSARr>
COC1C=CC(=CC=1)C(=O)CC(=O)OCC

> <InChI_Code_QSARr>
InChI=1S/C12H14O4/c1-3-16-12(14)8-11(13)9-4-6-10(15-2)7-5-9/h4-7H,3,8H2,1-2H3

> <InChI Key_QSARr>
KRAHENMBSVAAHD-UHFFFAOYSA-N

> <Salt_Solvent>


> <Salt_Solvent_ID>
0

> <MPID>
101473

> <Tr_1_Tst_0>
0

> <Ready_Biodeg>
1.0

$$$$
Row1439
  Mrv171c012251911052D          

 11 11  0  0  0  0            999 V2000
   -1.3546   -2.0076    0.0000 C   0  0  0  0  0  0  0  0  0  0  0  0
   -0.6402   -1.5951    0.0000 O   0  0  0  0  0  0  0  0  0  0  0  0
   -0.6402   -0.7701    0.0000 C   0  0  0  0  0  0  0  0  0  0  0  0
    0.0743   -0.3576    0.0000 C   0  0  0  0  0  0  0  0  0  0  0  0
    0.0743    0.4674    0.0000 C   0  0  0  0  0  0  0  0  0  0  0  0
   -0.6402    0.8799    0.0000 C   0  0  0  0  0  0  0  0  0  0  0  0
   -0.6402    1.7049    0.0000 O   0  0  0  0  0  0  0  0  0  0  0  0
   -1.3546    2.1174    0.0000 C   0  0  0  0  0  0  0  0  0  0  0  0
   -1.3546    0.4674    0.0000 C   0  0  0  0  0  0  0  0  0  0  0  0
   -2.0691    0.8799    0.0000 Cl  0  0  0  0  0  0  0  0  0  0  0  0
   -1.3546   -0.3576    0.0000 C   0  0  0  0  0  0  0  0  0  0  0  0
  1  2  1  0  0  0  0
  2  3  1  0  0  0  0
  4  3  2  0  0  0  0
  5  4  1  0  0  0  0
  6  5  2  0  0  0  0
  6  7  1  0  0  0  0
  7  8  1  0  0  0  0
  9  6  1  0  0  0  0
  9 10  1  0  0  0  0
 11  9  2  0  0  0  0
  3 11  1  0  0  0  0
M  END
> <ChemID>
201827

> <CAS>
2100-42-7

> <Original_SMILES>
COc1ccc(cc1Cl)OC

> <preferred_name>
2-Chloro-1,4-dimethoxybenzene

> <dsstox_substance_id>
DTXSID3041403

> <dsstox_compound_id>
DTXCID1021403

> <qc_level>


> <Canonical_QSARr>
COC1=CC=C(C=C1Cl)OC

> <InChI_Code_QSARr>
InChI=1S/C8H9ClO2/c1-10-6-3-4-8(11-2)7(9)5-6/h3-5H,1-2H3

> <InChI Key_QSARr>
QMXZSRVFIWACJH-UHFFFAOYSA-N

> <Salt_Solvent>


> <Salt_Solvent_ID>
0

> <MPID>
101474

> <Tr_1_Tst_0>
1

> <Ready_Biodeg>
0.0

$$$$
Row1440
  Mrv171c012251911052D          

 10 10  0  0  0  0            999 V2000
   -1.7862   -1.9387    0.0000 C   0  0  0  0  0  0  0  0  0  0  0  0
   -1.7862   -1.1137    0.0000 O   0  0  0  0  0  0  0  0  0  0  0  0
   -1.0717   -0.7012    0.0000 C   0  0  0  0  0  0  0  0  0  0  0  0
   -0.3572   -1.1138    0.0000 C   0  0  0  0  0  0  0  0  0  0  0  0
    0.3572   -0.7013    0.0000 C   0  0  0  0  0  0  0  0  0  0  0  0
    0.3572    0.1237    0.0000 C   0  0  0  0  0  0  0  0  0  0  0  0
   -0.3572    0.5362    0.0000 C   0  0  0  0  0  0  0  0  0  0  0  0
   -0.3572    1.3612    0.0000 C   0  0  0  0  0  0  0  0  0  0  0  0
   -1.0717    1.7737    0.0000 O   0  0  0  0  0  0  0  0  0  0  0  0
   -1.0717    0.1238    0.0000 C   0  0  0  0  0  0  0  0  0  0  0  0
  1  2  1  0  0  0  0
  2  3  1  0  0  0  0
  4  3  2  0  0  0  0
  5  4  1  0  0  0  0
  6  5  2  0  0  0  0
  7  6  1  0  0  0  0
  7  8  1  0  0  0  0
  8  9  2  0  0  0  0
 10  7  2  0  0  0  0
  3 10  1  0  0  0  0
M  END
> <ChemID>
201828

> <CAS>
591-31-1

> <Original_SMILES>
COc1cccc(C=O)c1

> <preferred_name>
3-Methoxybenzaldehyde

> <dsstox_substance_id>
DTXSID5044447

> <dsstox_compound_id>
DTXCID3024447

> <qc_level>


> <Canonical_QSARr>
COC1C=C(C=O)C=CC=1

> <InChI_Code_QSARr>
InChI=1S/C8H8O2/c1-10-8-4-2-3-7(5-8)6-9/h2-6H,1H3

> <InChI Key_QSARr>
WMPDAIZRQDCGFH-UHFFFAOYSA-N

> <Salt_Solvent>


> <Salt_Solvent_ID>
0

> <MPID>
101475

> <Tr_1_Tst_0>
1

> <Ready_Biodeg>
1.0

$$$$
Row1441
  Mrv171c012251911052D          

  5  4  0  0  0  0            999 V2000
    0.0000   -0.8250    0.0000 C   0  0  0  0  0  0  0  0  0  0  0  0
    0.0000    0.0000    0.0000 S   0  0  0  0  0  0  0  0  0  0  0  0
    0.0000    0.8250    0.0000 O   0  0  0  0  0  0  0  0  0  0  0  0
    0.8250   -0.0000    0.0000 O   0  0  0  0  0  0  0  0  0  0  0  0
   -0.8250    0.0000    0.0000 O   0  0  0  0  0  0  0  0  0  0  0  0
  1  2  1  0  0  0  0
  2  3  1  0  0  0  0
  2  4  2  0  0  0  0
  2  5  2  0  0  0  0
M  END
> <ChemID>
201838

> <CAS>
75-75-2

> <Original_SMILES>
CS(O)(=O)=O

> <preferred_name>
Methanesulfonic acid

> <dsstox_substance_id>
DTXSID4026422

> <dsstox_compound_id>
DTXCID806422

> <qc_level>


> <Canonical_QSARr>
CS(O)(=O)=O

> <InChI_Code_QSARr>
InChI=1S/CH4O3S/c1-5(2,3)4/h1H3,(H,2,3,4)

> <InChI Key_QSARr>
AFVFQIVMOAPDHO-UHFFFAOYSA-N

> <Salt_Solvent>


> <Salt_Solvent_ID>
0

> <MPID>
101476

> <Tr_1_Tst_0>
1

> <Ready_Biodeg>
1.0

$$$$
Row1442
  Mrv171c012251911052D          

  4  3  0  0  0  0            999 V2000
    2.1030   -0.5635    0.0000 C   0  0  0  0  0  0  0  0  0  0  0  0
    1.2780   -0.5635    0.0000 S   0  0  0  0  0  0  0  0  0  0  0  0
    0.8655    0.1510    0.0000 S   0  0  0  0  0  0  0  0  0  0  0  0
    0.0405    0.1510    0.0000 C   0  0  0  0  0  0  0  0  0  0  0  0
  1  2  1  0  0  0  0
  2  3  1  0  0  0  0
  3  4  1  0  0  0  0
M  END
> <ChemID>
201839

> <CAS>
624-92-0

> <Original_SMILES>
CSSC

> <preferred_name>
Methyl disulfide

> <dsstox_substance_id>
DTXSID4025117

> <dsstox_compound_id>
DTXCID805117

> <qc_level>


> <Canonical_QSARr>
CSSC

> <InChI_Code_QSARr>
InChI=1S/C2H6S2/c1-3-4-2/h1-2H3

> <InChI Key_QSARr>
WQOXQRCZOLPYPM-UHFFFAOYSA-N

> <Salt_Solvent>


> <Salt_Solvent_ID>
0

> <MPID>
101477

> <Tr_1_Tst_0>
1

> <Ready_Biodeg>
0.0

$$$$
Row1443
  Mrv171c012251911052D          

  9  9  0  0  0  0            999 V2000
   -1.2310   -1.9127    0.0000 C   0  0  0  0  0  0  0  0  0  0  0  0
   -0.5165   -1.5002    0.0000 S   0  0  0  0  0  0  0  0  0  0  0  0
   -0.5165   -0.6752    0.0000 C   0  0  0  0  0  0  0  0  0  0  0  0
    0.1980   -0.2627    0.0000 C   0  0  0  0  0  0  0  0  0  0  0  0
    0.1980    0.5623    0.0000 C   0  0  0  0  0  0  0  0  0  0  0  0
   -0.5165    0.9748    0.0000 C   0  0  0  0  0  0  0  0  0  0  0  0
   -0.5165    1.7998    0.0000 O   0  0  0  0  0  0  0  0  0  0  0  0
   -1.2310    0.5623    0.0000 C   0  0  0  0  0  0  0  0  0  0  0  0
   -1.2310   -0.2627    0.0000 C   0  0  0  0  0  0  0  0  0  0  0  0
  1  2  1  0  0  0  0
  2  3  1  0  0  0  0
  4  3  2  0  0  0  0
  5  4  1  0  0  0  0
  6  5  2  0  0  0  0
  6  7  1  0  0  0  0
  8  6  1  0  0  0  0
  9  8  2  0  0  0  0
  3  9  1  0  0  0  0
M  END
> <ChemID>
201840

> <CAS>
1073-72-9

> <Original_SMILES>
CSc1ccc(O)cc1

> <preferred_name>
4-(Methylthio)phenol

> <dsstox_substance_id>
DTXSID3051547

> <dsstox_compound_id>
DTXCID4030099

> <qc_level>


> <Canonical_QSARr>
CSC1C=CC(O)=CC=1

> <InChI_Code_QSARr>
InChI=1S/C7H8OS/c1-9-7-4-2-6(8)3-5-7/h2-5,8H,1H3

> <InChI Key_QSARr>
QASBCTGZKABPKX-UHFFFAOYSA-N

> <Salt_Solvent>


> <Salt_Solvent_ID>
0

> <MPID>
101478

> <Tr_1_Tst_0>
1

> <Ready_Biodeg>
0.0

$$$$
Row1444
  Mrv171c012251911052D          

 29 30  0  0  0  0            999 V2000
    0.5884   -3.0942    0.0000 O   0  0  0  0  0  0  0  0  0  0  0  0
    1.3421   -3.4297    0.0000 P   0  0  0  0  0  0  0  0  0  0  0  0
    1.0065   -4.1834    0.0000 O   0  0  0  0  0  0  0  0  0  0  0  0
    1.4914   -4.8508    0.0000 N   0  3  0  0  0  0  0  0  0  0  0  0
    1.9764   -5.5183    0.0000 C   0  0  0  0  0  0  0  0  0  0  0  0
    2.1589   -4.3659    0.0000 C   0  0  0  0  0  0  0  0  0  0  0  0
    0.8240   -5.3358    0.0000 C   0  0  0  0  0  0  0  0  0  0  0  0
    1.6776   -2.6761    0.0000 O   0  0  0  0  0  0  0  0  0  0  0  0
    1.1927   -2.0086    0.0000 P   0  0  0  0  0  0  0  0  0  0  0  0
    1.8602   -1.5237    0.0000 O   0  0  0  0  0  0  0  0  0  0  0  0
    0.5253   -2.4935    0.0000 O   0  0  0  0  0  0  0  0  0  0  0  0
    0.7078   -1.3412    0.0000 O   0  0  0  0  0  0  0  0  0  0  0  0
    1.0434   -0.5875    0.0000 C   0  0  0  0  0  0  0  0  0  0  0  0
    0.5584    0.0799    0.0000 C   0  0  0  0  0  0  0  0  0  0  0  0
    0.8134    0.8646    0.0000 O   0  0  0  0  0  0  0  0  0  0  0  0
    0.1459    1.3495    0.0000 C   0  0  0  0  0  0  0  0  0  0  0  0
    0.1459    2.1745    0.0000 N   0  0  0  0  0  0  0  0  0  0  0  0
    0.8604    2.5870    0.0000 C   0  0  0  0  0  0  0  0  0  0  0  0
    0.8604    3.4120    0.0000 C   0  0  0  0  0  0  0  0  0  0  0  0
    0.1459    3.8245    0.0000 C   0  0  0  0  0  0  0  0  0  0  0  0
    0.1459    4.6495    0.0000 N   0  0  0  0  0  0  0  0  0  0  0  0
   -0.5685    3.4120    0.0000 N   0  0  0  0  0  0  0  0  0  0  0  0
   -0.5685    2.5870    0.0000 C   0  0  0  0  0  0  0  0  0  0  0  0
   -1.2830    2.1745    0.0000 O   0  0  0  0  0  0  0  0  0  0  0  0
   -0.5215    0.8646    0.0000 C   0  0  0  0  0  0  0  0  0  0  0  0
   -1.3061    1.1195    0.0000 O   0  0  0  0  0  0  0  0  0  0  0  0
   -0.2666    0.0799    0.0000 C   0  0  0  0  0  0  0  0  0  0  0  0
   -0.7515   -0.5875    0.0000 O   0  0  0  0  0  0  0  0  0  0  0  0
    2.0958   -3.7653    0.0000 O   0  0  0  0  0  0  0  0  0  0  0  0
  1  2  1  0  0  0  0
  2  3  1  0  0  0  0
  3  4  1  0  0  0  0
  4  5  1  0  0  0  0
  4  6  1  0  0  0  0
  4  7  1  0  0  0  0
  2  8  1  0  0  0  0
  8  9  1  0  0  0  0
  9 10  1  0  0  0  0
  9 11  2  0  0  0  0
  9 12  1  0  0  0  0
 12 13  1  0  0  0  0
 13 14  1  0  0  0  0
 15 14  1  0  0  0  0
 16 15  1  0  0  0  0
 16 17  1  0  0  0  0
 18 17  1  0  0  0  0
 19 18  2  0  0  0  0
 20 19  1  0  0  0  0
 20 21  1  0  0  0  0
 22 20  2  0  0  0  0
 23 22  1  0  0  0  0
 17 23  1  0  0  0  0
 23 24  2  0  0  0  0
 25 16  1  0  0  0  0
 25 26  1  0  0  0  0
 27 25  1  0  0  0  0
 14 27  1  0  0  0  0
 27 28  1  0  0  0  0
  2 29  2  0  0  0  0
M  CHG  1   4   1
M  END
> <ChemID>
201841

> <CAS>
987-78-0

> <Original_SMILES>
C[N+](C)(C)OP(O)(=O)OP(O)(=O)OCC1OC(C(O)C1O)N1C=CC(N)=NC1=O

> <preferred_name>
Citicoline

> <dsstox_substance_id>
DTXSID9048431

> <dsstox_compound_id>
DTXCID5028405

> <qc_level>


> <Canonical_QSARr>
C[N+](C)(C)OP(O)(=O)OP(O)(=O)OCC1OC(C(O)C1O)N1C=CC(N)=NC1=O

> <InChI_Code_QSARr>
InChI=1S/C12H22N4O11P2/c1-16(2,3)26-29(22,23)27-28(20,21)24-6-7-9(17)10(18)11(25-7)15-5-4-8(13)14-12(15)19/h4-5,7,9-11,17-18H,6H2,1-3H3,(H3-,13,14,19,20,21,22,23)/p+1

> <InChI Key_QSARr>
OPDHNBAEGPICKZ-UHFFFAOYSA-O

> <Salt_Solvent>


> <Salt_Solvent_ID>
0

> <MPID>
101479

> <Tr_1_Tst_0>
0

> <Ready_Biodeg>
1.0

$$$$
Row1445
  Mrv171c012251911052D          

 20 19  0  0  0  0            999 V2000
    2.8875   -0.7145    0.0000 C   0  0  0  0  0  0  0  0  0  0  0  0
    2.0625   -0.7145    0.0000 Si  0  0  0  0  0  0  0  0  0  0  0  0
    2.0625    0.1105    0.0000 O   0  0  0  0  0  0  0  0  0  0  0  0
    1.3480    0.5230    0.0000 N   0  0  0  0  0  0  0  0  0  0  0  0
    1.3480    1.3480    0.0000 C   0  0  0  0  0  0  0  0  0  0  0  0
    2.0625    1.7605    0.0000 C   0  0  0  0  0  0  0  0  0  0  0  0
    0.6336    1.7605    0.0000 C   0  0  0  0  0  0  0  0  0  0  0  0
    0.6336    2.5855    0.0000 C   0  0  0  0  0  0  0  0  0  0  0  0
    2.0625   -1.5395    0.0000 O   0  0  0  0  0  0  0  0  0  0  0  0
    2.7770   -1.9520    0.0000 N   0  0  0  0  0  0  0  0  0  0  0  0
    2.7770   -2.7770    0.0000 C   0  0  0  0  0  0  0  0  0  0  0  0
    2.0625   -3.1895    0.0000 C   0  0  0  0  0  0  0  0  0  0  0  0
    3.4914   -3.1895    0.0000 C   0  0  0  0  0  0  0  0  0  0  0  0
    4.2059   -2.7770    0.0000 C   0  0  0  0  0  0  0  0  0  0  0  0
    1.2375   -0.7145    0.0000 O   0  0  0  0  0  0  0  0  0  0  0  0
    0.8250    0.0000    0.0000 N   0  0  0  0  0  0  0  0  0  0  0  0
    0.0000    0.0000    0.0000 C   0  0  0  0  0  0  0  0  0  0  0  0
   -0.4125    0.7145    0.0000 C   0  0  0  0  0  0  0  0  0  0  0  0
   -0.4125   -0.7145    0.0000 C   0  0  0  0  0  0  0  0  0  0  0  0
   -1.2375   -0.7145    0.0000 C   0  0  0  0  0  0  0  0  0  0  0  0
  1  2  1  0  0  0  0
  2  3  1  0  0  0  0
  4  3  1  4  0  0  0
  4  5  2  0  0  0  0
  5  6  1  0  0  0  0
  5  7  1  0  0  0  0
  7  8  1  0  0  0  0
  2  9  1  0  0  0  0
 10  9  1  4  0  0  0
 10 11  2  0  0  0  0
 11 12  1  0  0  0  0
 11 13  1  0  0  0  0
 13 14  1  0  0  0  0
  2 15  1  0  0  0  0
 16 15  1  4  0  0  0
 16 17  2  0  0  0  0
 17 18  1  0  0  0  0
 17 19  1  0  0  0  0
 19 20  1  0  0  0  0
M  END
> <ChemID>
201842

> <CAS>
NOCAS_860290

> <Original_SMILES>
C[Si](O/N=C(/C)\CC)(O/N=C(\C)/CC)O/N=C(\C)/CC

> <preferred_name>
2-Butanone, O,O',O''-(methylsilylidyne)trioxime

> <dsstox_substance_id>
DTXSID30860290

> <dsstox_compound_id>
DTXCID107823

> <qc_level>


> <Canonical_QSARr>
C[Si](ON=C(C)CC)(ON=C(C)CC)ON=C(C)CC

> <InChI_Code_QSARr>
InChI=1S/C13H27N3O3Si/c1-8-11(4)14-17-20(7,18-15-12(5)9-2)19-16-13(6)10-3/h8-10H2,1-7H3

> <InChI Key_QSARr>
OGZPYBBKQGPQNU-UHFFFAOYSA-N

> <Salt_Solvent>


> <Salt_Solvent_ID>
0

> <MPID>
101480

> <Tr_1_Tst_0>
1

> <Ready_Biodeg>
0.0

$$$$
Row1446
  Mrv171c012251911052D          

  6  6  0  0  0  0            999 V2000
   -0.4449    1.2256    0.0000 C   0  0  0  0  0  0  0  0  0  0  0  0
   -0.4449    0.4006    0.0000 C   0  0  0  0  0  0  0  0  0  0  0  0
   -1.1123   -0.0844    0.0000 N   0  0  0  0  0  0  0  0  0  0  0  0
   -0.8574   -0.8690    0.0000 C   0  0  0  0  0  0  0  0  0  0  0  0
   -0.0324   -0.8690    0.0000 C   0  0  0  0  0  0  0  0  0  0  0  0
    0.2226   -0.0844    0.0000 N   0  0  0  0  0  0  0  0  0  0  0  0
  1  2  1  0  0  0  0
  3  2  1  0  0  0  0
  4  3  1  0  0  0  0
  5  4  2  0  0  0  0
  6  5  1  0  0  0  0
  2  6  2  0  0  0  0
M  END
> <ChemID>
201843

> <CAS>
693-98-1

> <Original_SMILES>
Cc1[nH]cc[n]1

> <preferred_name>
2-Methylimidazole

> <dsstox_substance_id>
DTXSID4022107

> <dsstox_compound_id>
DTXCID202107

> <qc_level>


> <Canonical_QSARr>
CC1NC=CN=1

> <InChI_Code_QSARr>
InChI=1S/C4H6N2/c1-4-5-2-3-6-4/h2-3H,1H3,(H,5,6)

> <InChI Key_QSARr>
LXBGSDVWAMZHDD-UHFFFAOYSA-N

> <Salt_Solvent>


> <Salt_Solvent_ID>
0

> <MPID>
101481

> <Tr_1_Tst_0>
1

> <Ready_Biodeg>
0.0

$$$$
Row1447
  Mrv171c012251911052D          

  9  9  0  0  0  0            999 V2000
    0.6531    0.6417    0.0000 C   0  0  0  0  0  0  0  0  0  0  0  0
   -0.0614    0.2292    0.0000 C   0  0  0  0  0  0  0  0  0  0  0  0
   -0.7759    0.6417    0.0000 C   0  0  0  0  0  0  0  0  0  0  0  0
   -0.7759    1.4667    0.0000 Cl  0  0  0  0  0  0  0  0  0  0  0  0
   -1.4904    0.2292    0.0000 C   0  0  0  0  0  0  0  0  0  0  0  0
   -1.4904   -0.5958    0.0000 C   0  0  0  0  0  0  0  0  0  0  0  0
   -0.7759   -1.0083    0.0000 C   0  0  0  0  0  0  0  0  0  0  0  0
   -0.0614   -0.5958    0.0000 C   0  0  0  0  0  0  0  0  0  0  0  0
    0.6531   -1.0083    0.0000 Cl  0  0  0  0  0  0  0  0  0  0  0  0
  1  2  1  0  0  0  0
  3  2  2  0  0  0  0
  3  4  1  0  0  0  0
  5  3  1  0  0  0  0
  6  5  2  0  0  0  0
  7  6  1  0  0  0  0
  8  7  2  0  0  0  0
  2  8  1  0  0  0  0
  8  9  1  0  0  0  0
M  END
> <ChemID>
201847

> <CAS>
118-69-4

> <Original_SMILES>
Cc1c(Cl)cccc1Cl

> <preferred_name>
2,6-Dichlorotoluene

> <dsstox_substance_id>
DTXSID3040697

> <dsstox_compound_id>
DTXCID1020697

> <qc_level>


> <Canonical_QSARr>
CC1C(Cl)=CC=CC=1Cl

> <InChI_Code_QSARr>
InChI=1S/C7H6Cl2/c1-5-6(8)3-2-4-7(5)9/h2-4H,1H3

> <InChI Key_QSARr>
DMEDNTFWIHCBRK-UHFFFAOYSA-N

> <Salt_Solvent>


> <Salt_Solvent_ID>
0

> <MPID>
101482

> <Tr_1_Tst_0>
1

> <Ready_Biodeg>
0.0

$$$$
Row1448
  Mrv171c012251911052D          

  7  7  0  0  0  0            999 V2000
   -0.5103    1.7089    0.0000 C   0  0  0  0  0  0  0  0  0  0  0  0
   -0.5103    0.8839    0.0000 C   0  0  0  0  0  0  0  0  0  0  0  0
   -1.2248    0.4714    0.0000 C   0  0  0  0  0  0  0  0  0  0  0  0
   -1.2248   -0.3536    0.0000 C   0  0  0  0  0  0  0  0  0  0  0  0
   -0.5103   -0.7661    0.0000 C   0  0  0  0  0  0  0  0  0  0  0  0
    0.2041   -0.3536    0.0000 N   0  0  0  0  0  0  0  0  0  0  0  0
    0.2041    0.4714    0.0000 C   0  0  0  0  0  0  0  0  0  0  0  0
  1  2  1  0  0  0  0
  3  2  2  0  0  0  0
  4  3  1  0  0  0  0
  5  4  2  0  0  0  0
  6  5  1  0  0  0  0
  7  6  2  0  0  0  0
  2  7  1  0  0  0  0
M  END
> <ChemID>
201848

> <CAS>
108-99-6

> <Original_SMILES>
Cc1c[n]ccc1

> <preferred_name>
3-Methylpyridine

> <dsstox_substance_id>
DTXSID9021897

> <dsstox_compound_id>
DTXCID201897

> <qc_level>


> <Canonical_QSARr>
CC1C=NC=CC=1

> <InChI_Code_QSARr>
InChI=1S/C6H7N/c1-6-3-2-4-7-5-6/h2-5H,1H3

> <InChI Key_QSARr>
ITQTTZVARXURQS-UHFFFAOYSA-N

> <Salt_Solvent>


> <Salt_Solvent_ID>
0

> <MPID>
101483

> <Tr_1_Tst_0>
1

> <Ready_Biodeg>
0.0

$$$$
Row1449
  Mrv171c012251911052D          

  6  6  0  0  0  0            999 V2000
   -0.3619    1.0094    0.0000 C   0  0  0  0  0  0  0  0  0  0  0  0
   -0.3619    0.1844    0.0000 C   0  0  0  0  0  0  0  0  0  0  0  0
   -1.0293   -0.3005    0.0000 C   0  0  0  0  0  0  0  0  0  0  0  0
   -0.7744   -1.0852    0.0000 S   0  0  0  0  0  0  0  0  0  0  0  0
    0.0506   -1.0852    0.0000 C   0  0  0  0  0  0  0  0  0  0  0  0
    0.3055   -0.3005    0.0000 C   0  0  0  0  0  0  0  0  0  0  0  0
  1  2  1  0  0  0  0
  3  2  2  0  0  0  0
  4  3  1  0  0  0  0
  5  4  1  0  0  0  0
  6  5  2  0  0  0  0
  2  6  1  0  0  0  0
M  END
> <ChemID>
201849

> <CAS>
616-44-4

> <Original_SMILES>
Cc1c[s]cc1

> <preferred_name>
Thiophene, 3-methyl-

> <dsstox_substance_id>
DTXSID8060666

> <dsstox_compound_id>
DTXCID7043083

> <qc_level>


> <Canonical_QSARr>
CC1=CSC=C1

> <InChI_Code_QSARr>
InChI=1S/C5H6S/c1-5-2-3-6-4-5/h2-4H,1H3

> <InChI Key_QSARr>
QENGPZGAWFQWCZ-UHFFFAOYSA-N

> <Salt_Solvent>


> <Salt_Solvent_ID>
0

> <MPID>
101484

> <Tr_1_Tst_0>
0

> <Ready_Biodeg>
0.0

$$$$
Row1450
  Mrv171c012251911052D          

 16 17  0  0  0  0            999 V2000
    1.5505    0.4316    0.0000 C   0  0  0  0  0  0  0  0  0  0  0  0
    0.8360    0.0191    0.0000 C   0  0  0  0  0  0  0  0  0  0  0  0
    0.8360   -0.8059    0.0000 C   0  0  0  0  0  0  0  0  0  0  0  0
    0.1215   -1.2184    0.0000 C   0  0  0  0  0  0  0  0  0  0  0  0
    0.1215   -2.0434    0.0000 C   0  0  0  0  0  0  0  0  0  0  0  0
    0.8360   -2.4559    0.0000 C   0  0  0  0  0  0  0  0  0  0  0  0
    1.5505   -2.0434    0.0000 C   0  0  0  0  0  0  0  0  0  0  0  0
    1.5505   -1.2184    0.0000 C   0  0  0  0  0  0  0  0  0  0  0  0
    0.1215    0.4316    0.0000 C   0  0  0  0  0  0  0  0  0  0  0  0
    0.1215    1.2566    0.0000 C   0  0  0  0  0  0  0  0  0  0  0  0
   -0.5929    1.6691    0.0000 C   0  0  0  0  0  0  0  0  0  0  0  0
   -0.5929    2.4941    0.0000 C   0  0  0  0  0  0  0  0  0  0  0  0
   -1.3074    1.2566    0.0000 C   0  0  0  0  0  0  0  0  0  0  0  0
   -1.3074    0.4316    0.0000 C   0  0  0  0  0  0  0  0  0  0  0  0
   -0.5929    0.0191    0.0000 C   0  0  0  0  0  0  0  0  0  0  0  0
   -0.5929   -0.8059    0.0000 C   0  0  0  0  0  0  0  0  0  0  0  0
  1  2  1  0  0  0  0
  2  3  1  0  0  0  0
  4  3  2  0  0  0  0
  5  4  1  0  0  0  0
  6  5  2  0  0  0  0
  7  6  1  0  0  0  0
  8  7  2  0  0  0  0
  3  8  1  0  0  0  0
  2  9  1  0  0  0  0
 10  9  2  0  0  0  0
 11 10  1  0  0  0  0
 11 12  1  0  0  0  0
 13 11  2  0  0  0  0
 14 13  1  0  0  0  0
 15 14  2  0  0  0  0
  9 15  1  0  0  0  0
 15 16  1  0  0  0  0
M  END
> <ChemID>
201850

> <CAS>
6165-51-1

> <Original_SMILES>
Cc1cc(C(C)c2ccccc2)c(C)cc1

> <preferred_name>


> <dsstox_substance_id>


> <dsstox_compound_id>


> <qc_level>


> <Canonical_QSARr>
CC1C=C(C(C)C2C=CC=CC=2)C(C)=CC=1

> <InChI_Code_QSARr>
InChI=1S/C16H18/c1-12-9-10-13(2)16(11-12)14(3)15-7-5-4-6-8-15/h4-11,14H,1-3H3

> <InChI Key_QSARr>
FRAOOIFTSMORED-UHFFFAOYSA-N

> <Salt_Solvent>


> <Salt_Solvent_ID>
0

> <MPID>
101485

> <Tr_1_Tst_0>
1

> <Ready_Biodeg>
0.0

$$$$
Row1451
  Mrv171c012251911052D          

 29 31  0  0  0  0            999 V2000
    3.9518   -2.8327    0.0000 C   0  0  0  0  0  0  0  0  0  0  0  0
    3.2374   -2.4202    0.0000 C   0  0  0  0  0  0  0  0  0  0  0  0
    3.2374   -1.5952    0.0000 C   0  0  0  0  0  0  0  0  0  0  0  0
    2.5229   -1.1827    0.0000 C   0  0  0  0  0  0  0  0  0  0  0  0
    2.5229   -0.3577    0.0000 C   0  0  0  0  0  0  0  0  0  0  0  0
    1.8084   -1.5952    0.0000 C   0  0  0  0  0  0  0  0  0  0  0  0
    1.8084   -2.4202    0.0000 C   0  0  0  0  0  0  0  0  0  0  0  0
    1.0940   -2.8327    0.0000 O   0  0  0  0  0  0  0  0  0  0  0  0
    0.3795   -2.4202    0.0000 P   0  0  0  0  0  0  0  0  0  0  0  0
    0.7920   -1.7057    0.0000 O   0  0  0  0  0  0  0  0  0  0  0  0
   -0.3350   -2.0077    0.0000 O   0  0  0  0  0  0  0  0  0  0  0  0
   -0.3350   -1.1827    0.0000 C   0  0  0  0  0  0  0  0  0  0  0  0
    0.3795   -0.7702    0.0000 C   0  0  0  0  0  0  0  0  0  0  0  0
    0.3795    0.0548    0.0000 C   0  0  0  0  0  0  0  0  0  0  0  0
    1.0940    0.4673    0.0000 C   0  0  0  0  0  0  0  0  0  0  0  0
   -0.3350    0.4673    0.0000 C   0  0  0  0  0  0  0  0  0  0  0  0
   -1.0494    0.0548    0.0000 C   0  0  0  0  0  0  0  0  0  0  0  0
   -1.7639    0.4673    0.0000 C   0  0  0  0  0  0  0  0  0  0  0  0
   -1.0494   -0.7702    0.0000 C   0  0  0  0  0  0  0  0  0  0  0  0
   -0.0330   -3.1346    0.0000 O   0  0  0  0  0  0  0  0  0  0  0  0
   -0.8580   -3.1346    0.0000 C   0  0  0  0  0  0  0  0  0  0  0  0
   -1.2705   -2.4202    0.0000 C   0  0  0  0  0  0  0  0  0  0  0  0
   -2.0955   -2.4202    0.0000 C   0  0  0  0  0  0  0  0  0  0  0  0
   -2.5080   -1.7057    0.0000 C   0  0  0  0  0  0  0  0  0  0  0  0
   -2.5080   -3.1346    0.0000 C   0  0  0  0  0  0  0  0  0  0  0  0
   -2.0955   -3.8491    0.0000 C   0  0  0  0  0  0  0  0  0  0  0  0
   -2.5080   -4.5636    0.0000 C   0  0  0  0  0  0  0  0  0  0  0  0
   -1.2705   -3.8491    0.0000 C   0  0  0  0  0  0  0  0  0  0  0  0
    2.5229   -2.8327    0.0000 C   0  0  0  0  0  0  0  0  0  0  0  0
  1  2  1  0  0  0  0
  3  2  2  0  0  0  0
  4  3  1  0  0  0  0
  4  5  1  0  0  0  0
  6  4  2  0  0  0  0
  7  6  1  0  0  0  0
  7  8  1  0  0  0  0
  8  9  1  0  0  0  0
  9 10  2  0  0  0  0
  9 11  1  0  0  0  0
 11 12  1  0  0  0  0
 13 12  2  0  0  0  0
 14 13  1  0  0  0  0
 14 15  1  0  0  0  0
 16 14  2  0  0  0  0
 17 16  1  0  0  0  0
 17 18  1  0  0  0  0
 19 17  2  0  0  0  0
 12 19  1  0  0  0  0
  9 20  1  0  0  0  0
 20 21  1  0  0  0  0
 22 21  2  0  0  0  0
 23 22  1  0  0  0  0
 23 24  1  0  0  0  0
 25 23  2  0  0  0  0
 26 25  1  0  0  0  0
 26 27  1  0  0  0  0
 28 26  2  0  0  0  0
 21 28  1  0  0  0  0
 29  7  2  0  0  0  0
  2 29  1  0  0  0  0
M  END
> <ChemID>
201855

> <CAS>
25653-16-1

> <Original_SMILES>
Cc1cc(C)cc(c1)OP(=O)(Oc1cc(C)cc(C)c1)Oc1cc(C)cc(C)c1

> <preferred_name>


> <dsstox_substance_id>
DTXSID10274134

> <dsstox_compound_id>
DTXCID606267

> <qc_level>


> <Canonical_QSARr>
CC1=CC(C)=CC(=C1)OP(=O)(OC1=CC(C)=CC(C)=C1)OC1=CC(C)=CC(C)=C1

> <InChI_Code_QSARr>
InChI=1S/C24H27O4P/c1-16-7-17(2)11-22(10-16)26-29(25,27-23-12-18(3)8-19(4)13-23)28-24-14-20(5)9-21(6)15-24/h7-15H,1-6H3

> <InChI Key_QSARr>
LLPMAOBOEQFPRE-UHFFFAOYSA-N

> <Salt_Solvent>


> <Salt_Solvent_ID>
0

> <MPID>
101486

> <Tr_1_Tst_0>
1

> <Ready_Biodeg>
0.0

$$$$
Row1452
  Mrv171c012251911052D          

 15 16  0  0  0  0            999 V2000
    0.6334   -1.7050    0.0000 C   0  0  0  0  0  0  0  0  0  0  0  0
    0.6334   -0.8800    0.0000 C   0  0  0  0  0  0  0  0  0  0  0  0
    1.3479   -0.4675    0.0000 C   0  0  0  0  0  0  0  0  0  0  0  0
    1.3479    0.3575    0.0000 C   0  0  0  0  0  0  0  0  0  0  0  0
    0.6334    0.7700    0.0000 C   0  0  0  0  0  0  0  0  0  0  0  0
    0.6334    1.5950    0.0000 C   0  0  0  0  0  0  0  0  0  0  0  0
   -0.0811    0.3575    0.0000 C   0  0  0  0  0  0  0  0  0  0  0  0
   -0.7955    0.7700    0.0000 C   0  0  0  0  0  0  0  0  0  0  0  0
   -1.5100    0.3575    0.0000 C   0  0  0  0  0  0  0  0  0  0  0  0
   -2.2245    0.7700    0.0000 C   0  0  0  0  0  0  0  0  0  0  0  0
   -2.9389    0.3575    0.0000 C   0  0  0  0  0  0  0  0  0  0  0  0
   -2.9389   -0.4675    0.0000 C   0  0  0  0  0  0  0  0  0  0  0  0
   -2.2245   -0.8800    0.0000 C   0  0  0  0  0  0  0  0  0  0  0  0
   -1.5100   -0.4675    0.0000 C   0  0  0  0  0  0  0  0  0  0  0  0
   -0.0811   -0.4675    0.0000 C   0  0  0  0  0  0  0  0  0  0  0  0
  1  2  1  0  0  0  0
  3  2  2  0  0  0  0
  4  3  1  0  0  0  0
  5  4  2  0  0  0  0
  5  6  1  0  0  0  0
  7  5  1  0  0  0  0
  7  8  1  0  0  0  0
  8  9  1  0  0  0  0
 10  9  2  0  0  0  0
 11 10  1  0  0  0  0
 12 11  2  0  0  0  0
 13 12  1  0  0  0  0
 14 13  2  0  0  0  0
  9 14  1  0  0  0  0
 15  7  2  0  0  0  0
  2 15  1  0  0  0  0
M  END
> <ChemID>
201857

> <CAS>
13540-50-6

> <Original_SMILES>
Cc1cc(Cc2ccccc2)c(C)cc1

> <preferred_name>
2,5-Dimethyldiphenylmethane

> <dsstox_substance_id>
DTXSID10159331

> <dsstox_compound_id>
DTXCID2081822

> <qc_level>


> <Canonical_QSARr>
CC1C=C(CC2C=CC=CC=2)C(C)=CC=1

> <InChI_Code_QSARr>
InChI=1S/C15H16/c1-12-8-9-13(2)15(10-12)11-14-6-4-3-5-7-14/h3-10H,11H2,1-2H3

> <InChI Key_QSARr>
LJBGURBFHJJQQU-UHFFFAOYSA-N

> <Salt_Solvent>


> <Salt_Solvent_ID>
0

> <MPID>
101487

> <Tr_1_Tst_0>
0

> <Ready_Biodeg>
0.0

$$$$
Row1453
  Mrv171c012251911052D          

 13 13  0  0  0  0            999 V2000
   -0.0114   -0.0379    0.0000 C   0  0  0  0  0  0  0  0  0  0  0  0
   -0.7259    0.3746    0.0000 C   0  0  0  0  0  0  0  0  0  0  0  0
   -0.7259    1.1996    0.0000 C   0  0  0  0  0  0  0  0  0  0  0  0
   -1.4403    1.6121    0.0000 C   0  0  0  0  0  0  0  0  0  0  0  0
   -1.4403    2.4371    0.0000 Cl  0  0  0  0  0  0  0  0  0  0  0  0
   -2.1548    1.1996    0.0000 C   0  0  0  0  0  0  0  0  0  0  0  0
   -2.1548    0.3746    0.0000 C   0  0  0  0  0  0  0  0  0  0  0  0
   -1.4403   -0.0379    0.0000 C   0  0  0  0  0  0  0  0  0  0  0  0
   -1.4403   -0.8629    0.0000 O   0  0  0  0  0  0  0  0  0  0  0  0
   -0.7259   -1.2754    0.0000 C   0  0  0  0  0  0  0  0  0  0  0  0
   -0.7259   -2.1004    0.0000 C   0  0  0  0  0  0  0  0  0  0  0  0
   -0.0114   -2.5129    0.0000 O   0  0  0  0  0  0  0  0  0  0  0  0
   -1.4403   -2.5129    0.0000 O   0  0  0  0  0  0  0  0  0  0  0  0
  1  2  1  0  0  0  0
  3  2  2  0  0  0  0
  4  3  1  0  0  0  0
  4  5  1  0  0  0  0
  6  4  2  0  0  0  0
  7  6  1  0  0  0  0
  8  7  2  0  0  0  0
  2  8  1  0  0  0  0
  8  9  1  0  0  0  0
  9 10  1  0  0  0  0
 10 11  1  0  0  0  0
 11 12  1  0  0  0  0
 11 13  2  0  0  0  0
M  END
> <ChemID>
201859

> <CAS>
94-74-6

> <Original_SMILES>
Cc1cc(Cl)ccc1OCC(O)=O

> <preferred_name>
MCPA

> <dsstox_substance_id>
DTXSID4024195

> <dsstox_compound_id>
DTXCID304195

> <qc_level>


> <Canonical_QSARr>
CC1=CC(Cl)=CC=C1OCC(O)=O

> <InChI_Code_QSARr>
InChI=1S/C9H9ClO3/c1-6-4-7(10)2-3-8(6)13-5-9(11)12/h2-4H,5H2,1H3,(H,11,12)

> <InChI Key_QSARr>
WHKUVVPPKQRRBV-UHFFFAOYSA-N

> <Salt_Solvent>


> <Salt_Solvent_ID>
0

> <MPID>
101488

> <Tr_1_Tst_0>
1

> <Ready_Biodeg>
0.0

$$$$
Row1454
  Mrv171c012251911052D          

  9  9  0  0  0  0            999 V2000
    0.7145   -1.2375    0.0000 C   0  0  0  0  0  0  0  0  0  0  0  0
    0.7145   -0.4125    0.0000 C   0  0  0  0  0  0  0  0  0  0  0  0
    1.4290    0.0000    0.0000 C   0  0  0  0  0  0  0  0  0  0  0  0
    1.4290    0.8250    0.0000 C   0  0  0  0  0  0  0  0  0  0  0  0
    0.7145    1.2375    0.0000 C   0  0  0  0  0  0  0  0  0  0  0  0
    0.7145    2.0625    0.0000 C   0  0  0  0  0  0  0  0  0  0  0  0
    0.0000    0.8250    0.0000 C   0  0  0  0  0  0  0  0  0  0  0  0
   -0.7145    1.2375    0.0000 O   0  0  0  0  0  0  0  0  0  0  0  0
    0.0000    0.0000    0.0000 C   0  0  0  0  0  0  0  0  0  0  0  0
  1  2  1  0  0  0  0
  3  2  2  0  0  0  0
  4  3  1  0  0  0  0
  5  4  2  0  0  0  0
  5  6  1  0  0  0  0
  7  5  1  0  0  0  0
  7  8  1  0  0  0  0
  9  7  2  0  0  0  0
  2  9  1  0  0  0  0
M  END
> <ChemID>
201864

> <CAS>
95-87-4

> <Original_SMILES>
Cc1cc(O)c(C)cc1

> <preferred_name>
2,5-Dimethylphenol

> <dsstox_substance_id>
DTXSID6025145

> <dsstox_compound_id>
DTXCID905145

> <qc_level>


> <Canonical_QSARr>
CC1C=C(O)C(C)=CC=1

> <InChI_Code_QSARr>
InChI=1S/C8H10O/c1-6-3-4-7(2)8(9)5-6/h3-5,9H,1-2H3

> <InChI Key_QSARr>
NKTOLZVEWDHZMU-UHFFFAOYSA-N

> <Salt_Solvent>


> <Salt_Solvent_ID>
0

> <MPID>
101489

> <Tr_1_Tst_0>
1

> <Ready_Biodeg>
0.0

$$$$
Row1455
  Mrv171c012251911052D          

 10 10  0  0  0  0            999 V2000
   -0.6239   -2.4168    0.0000 C   0  0  0  0  0  0  0  0  0  0  0  0
    0.0906   -2.0043    0.0000 S   0  0  0  0  0  0  0  0  0  0  0  0
    0.0906   -1.1793    0.0000 C   0  0  0  0  0  0  0  0  0  0  0  0
    0.8051   -0.7668    0.0000 C   0  0  0  0  0  0  0  0  0  0  0  0
    0.8051    0.0582    0.0000 C   0  0  0  0  0  0  0  0  0  0  0  0
    0.0906    0.4707    0.0000 C   0  0  0  0  0  0  0  0  0  0  0  0
    0.0906    1.2957    0.0000 O   0  0  0  0  0  0  0  0  0  0  0  0
   -0.6239    0.0582    0.0000 C   0  0  0  0  0  0  0  0  0  0  0  0
   -0.6239   -0.7668    0.0000 C   0  0  0  0  0  0  0  0  0  0  0  0
   -1.3384   -1.1793    0.0000 C   0  0  0  0  0  0  0  0  0  0  0  0
  1  2  1  0  0  0  0
  2  3  1  0  0  0  0
  4  3  2  0  0  0  0
  5  4  1  0  0  0  0
  6  5  2  0  0  0  0
  6  7  1  0  0  0  0
  8  6  1  0  0  0  0
  9  8  2  0  0  0  0
  3  9  1  0  0  0  0
  9 10  1  0  0  0  0
M  END
> <ChemID>
201866

> <CAS>
3120-74-9

> <Original_SMILES>
Cc1cc(O)ccc1SC

> <preferred_name>
3-Methyl-4-(methylthio)phenol

> <dsstox_substance_id>
DTXSID0051996

> <dsstox_compound_id>
DTXCID3030559

> <qc_level>


> <Canonical_QSARr>
CC1=CC(O)=CC=C1SC

> <InChI_Code_QSARr>
InChI=1S/C8H10OS/c1-6-5-7(9)3-4-8(6)10-2/h3-5,9H,1-2H3

> <InChI Key_QSARr>
VKALYYFVKBXHTF-UHFFFAOYSA-N

> <Salt_Solvent>


> <Salt_Solvent_ID>
0

> <MPID>
101490

> <Tr_1_Tst_0>
1

> <Ready_Biodeg>
0.0

$$$$
Row1456
  Mrv171c012251911052D          

 13 13  0  0  0  0            999 V2000
    3.0659   -0.7762    0.0000 C   0  0  0  0  0  0  0  0  0  0  0  0
    2.3514   -0.3637    0.0000 C   0  0  0  0  0  0  0  0  0  0  0  0
    2.3514    0.4613    0.0000 C   0  0  0  0  0  0  0  0  0  0  0  0
    1.6370    0.8738    0.0000 C   0  0  0  0  0  0  0  0  0  0  0  0
    1.6370    1.6988    0.0000 C   0  0  0  0  0  0  0  0  0  0  0  0
    0.9225    0.4613    0.0000 C   0  0  0  0  0  0  0  0  0  0  0  0
    0.2080    0.8738    0.0000 O   0  0  0  0  0  0  0  0  0  0  0  0
    0.9225   -0.3637    0.0000 C   0  0  0  0  0  0  0  0  0  0  0  0
    0.2080   -0.7762    0.0000 C   0  0  0  0  0  0  0  0  0  0  0  0
   -0.5064   -1.1887    0.0000 C   0  0  0  0  0  0  0  0  0  0  0  0
    0.6205   -1.4907    0.0000 C   0  0  0  0  0  0  0  0  0  0  0  0
   -0.2045   -0.0618    0.0000 C   0  0  0  0  0  0  0  0  0  0  0  0
    1.6370   -0.7762    0.0000 C   0  0  0  0  0  0  0  0  0  0  0  0
  1  2  1  0  0  0  0
  3  2  2  0  0  0  0
  4  3  1  0  0  0  0
  4  5  1  0  0  0  0
  6  4  2  0  0  0  0
  6  7  1  0  0  0  0
  8  6  1  0  0  0  0
  8  9  1  0  0  0  0
  9 10  1  0  0  0  0
  9 11  1  0  0  0  0
  9 12  1  0  0  0  0
 13  8  2  0  0  0  0
  2 13  1  0  0  0  0
M  END
> <ChemID>
201870

> <CAS>
1879-09-0

> <Original_SMILES>
Cc1cc(c(O)c(C)c1)C(C)(C)C

> <preferred_name>
6-tert-Butyl-2,4-dimethylphenol

> <dsstox_substance_id>
DTXSID6041551

> <dsstox_compound_id>
DTXCID4021551

> <qc_level>


> <Canonical_QSARr>
CC1C=C(C(O)=C(C)C=1)C(C)(C)C

> <InChI_Code_QSARr>
InChI=1S/C12H18O/c1-8-6-9(2)11(13)10(7-8)12(3,4)5/h6-7,13H,1-5H3

> <InChI Key_QSARr>
OPLCSTZDXXUYDU-UHFFFAOYSA-N

> <Salt_Solvent>


> <Salt_Solvent_ID>
0

> <MPID>
101491

> <Tr_1_Tst_0>
1

> <Ready_Biodeg>
0.0

$$$$
Row1457
  Mrv171c012251911052D          

 22 24  0  0  0  0            999 V2000
    0.0000   -0.5845    0.0000 C   0  0  0  0  0  0  0  0  0  0  0  0
    0.4125    0.1299    0.0000 C   0  0  0  0  0  0  0  0  0  0  0  0
    1.2375    0.1299    0.0000 C   0  0  0  0  0  0  0  0  0  0  0  0
    1.6500    0.8444    0.0000 C   0  0  0  0  0  0  0  0  0  0  0  0
    2.4750    0.8444    0.0000 N   0  0  0  0  0  0  0  0  0  0  0  0
    2.9599    1.5118    0.0000 N   0  0  0  0  0  0  0  0  0  0  0  0
    3.7446    1.2569    0.0000 C   0  0  0  0  0  0  0  0  0  0  0  0
    4.4590    1.6694    0.0000 C   0  0  0  0  0  0  0  0  0  0  0  0
    5.1735    1.2569    0.0000 C   0  0  0  0  0  0  0  0  0  0  0  0
    5.1735    0.4319    0.0000 C   0  0  0  0  0  0  0  0  0  0  0  0
    5.8880    0.0194    0.0000 Cl  0  0  0  0  0  0  0  0  0  0  0  0
    4.4590    0.0194    0.0000 C   0  0  0  0  0  0  0  0  0  0  0  0
    3.7446    0.4319    0.0000 C   0  0  0  0  0  0  0  0  0  0  0  0
    2.9599    0.1770    0.0000 N   0  0  0  0  0  0  0  0  0  0  0  0
    1.2375    1.5589    0.0000 C   0  0  0  0  0  0  0  0  0  0  0  0
    1.6500    2.2733    0.0000 O   0  0  0  0  0  0  0  0  0  0  0  0
    0.4125    1.5589    0.0000 C   0  0  0  0  0  0  0  0  0  0  0  0
    0.0000    2.2733    0.0000 C   0  0  0  0  0  0  0  0  0  0  0  0
   -0.4125    2.9878    0.0000 C   0  0  0  0  0  0  0  0  0  0  0  0
    0.7145    2.6858    0.0000 C   0  0  0  0  0  0  0  0  0  0  0  0
   -0.7145    1.8608    0.0000 C   0  0  0  0  0  0  0  0  0  0  0  0
    0.0000    0.8444    0.0000 C   0  0  0  0  0  0  0  0  0  0  0  0
  1  2  1  0  0  0  0
  3  2  2  0  0  0  0
  4  3  1  0  0  0  0
  4  5  1  0  0  0  0
  6  5  1  0  0  0  0
  7  6  2  0  0  0  0
  7  8  1  0  0  0  0
  8  9  2  0  0  0  0
  9 10  1  0  0  0  0
 10 11  1  0  0  0  0
 10 12  2  0  0  0  0
 12 13  1  0  0  0  0
 13  7  1  0  0  0  0
 14 13  2  0  0  0  0
  5 14  1  0  0  0  0
 15  4  2  0  0  0  0
 15 16  1  0  0  0  0
 17 15  1  0  0  0  0
 17 18  1  0  0  0  0
 18 19  1  0  0  0  0
 18 20  1  0  0  0  0
 18 21  1  0  0  0  0
 22 17  2  0  0  0  0
  2 22  1  0  0  0  0
M  END
> <ChemID>
201871

> <CAS>
3896-11-5

> <Original_SMILES>
Cc1cc(c(O)c(c1)-[n]1[n]c2cc(Cl)ccc2[n]1)C(C)(C)C

> <preferred_name>
Bumetrizole

> <dsstox_substance_id>
DTXSID9036438

> <dsstox_compound_id>
DTXCID7016438

> <qc_level>


> <Canonical_QSARr>
CC1C=C(C(O)=C(C=1)N1N=C2C=C(Cl)C=CC2=N1)C(C)(C)C

> <InChI_Code_QSARr>
InChI=1S/C17H18ClN3O/c1-10-7-12(17(2,3)4)16(22)15(8-10)21-19-13-6-5-11(18)9-14(13)20-21/h5-9,22H,1-4H3

> <InChI Key_QSARr>
OCWYEMOEOGEQAN-UHFFFAOYSA-N

> <Salt_Solvent>


> <Salt_Solvent_ID>
0

> <MPID>
101492

> <Tr_1_Tst_0>
1

> <Ready_Biodeg>
0.0

$$$$
Row1458
  Mrv171c012251911052D          

 17 20  0  0  0  0            999 V2000
    1.9667   -1.0164    0.0000 C   0  0  0  0  0  0  0  0  0  0  0  0
    1.5542   -0.3019    0.0000 C   0  0  0  0  0  0  0  0  0  0  0  0
    1.9667    0.4125    0.0000 C   0  0  0  0  0  0  0  0  0  0  0  0
    1.5542    1.1270    0.0000 C   0  0  0  0  0  0  0  0  0  0  0  0
    0.7292    1.1270    0.0000 C   0  0  0  0  0  0  0  0  0  0  0  0
    0.3167    1.8415    0.0000 O   0  0  0  0  0  0  0  0  0  0  0  0
    0.3167    0.4125    0.0000 C   0  0  0  0  0  0  0  0  0  0  0  0
   -0.5083    0.4125    0.0000 N   0  0  0  0  0  0  0  0  0  0  0  0
   -1.2227    0.0000    0.0000 N   0  0  0  0  0  0  0  0  0  0  0  0
   -1.2227    0.8250    0.0000 N   0  0  0  0  0  0  0  0  0  0  0  0
   -2.0477    0.8250    0.0000 C   0  0  0  0  0  0  0  0  0  0  0  0
   -2.7622    1.2375    0.0000 C   0  0  0  0  0  0  0  0  0  0  0  0
   -3.4767    0.8250    0.0000 C   0  0  0  0  0  0  0  0  0  0  0  0
   -3.4767    0.0000    0.0000 C   0  0  0  0  0  0  0  0  0  0  0  0
   -2.7622   -0.4125    0.0000 C   0  0  0  0  0  0  0  0  0  0  0  0
   -2.0477    0.0000    0.0000 C   0  0  0  0  0  0  0  0  0  0  0  0
    0.7292   -0.3019    0.0000 C   0  0  0  0  0  0  0  0  0  0  0  0
  1  2  1  0  0  0  0
  3  2  2  0  0  0  0
  4  3  1  0  0  0  0
  5  4  2  0  0  0  0
  5  6  1  0  0  0  0
  7  5  1  0  0  0  0
  7  8  1  0  0  0  0
  9  8  1  0  0  0  0
  9 10  1  0  0  0  0
  8 10  1  0  0  0  0
 10 11  1  0  0  0  0
 12 11  2  0  0  0  0
 13 12  1  0  0  0  0
 14 13  2  0  0  0  0
 15 14  1  0  0  0  0
 16 15  2  0  0  0  0
 11 16  1  0  0  0  0
 16  9  1  0  0  0  0
 17  7  2  0  0  0  0
  2 17  1  0  0  0  0
M  END
> <ChemID>
201872

> <CAS>
2440-22-4

> <Original_SMILES>
Cc1cc(c(O)cc1)-[n]1[n]2c3ccccc3[n]21

> <preferred_name>
2-(2H-Benzotriazol-2-yl)-4-methylphenol

> <dsstox_substance_id>
DTXSID1027479

> <dsstox_compound_id>
DTXCID207479

> <qc_level>


> <Canonical_QSARr>
CC1C=C(C(O)=CC=1)N1N2C3=CC=CC=C3N21

> <InChI_Code_QSARr>
InChI=1S/C13H11N3O/c1-9-6-7-13(17)12(8-9)16-14-10-4-2-3-5-11(10)15(14)16/h2-8,17H,1H3

> <InChI Key_QSARr>
YXJVVCASIQTSCQ-UHFFFAOYSA-N

> <Salt_Solvent>


> <Salt_Solvent_ID>
0

> <MPID>
101493

> <Tr_1_Tst_0>
1

> <Ready_Biodeg>
0.0

$$$$
Row1459
  Mrv171c012251911052D          

 23 25  0  0  0  0            999 V2000
    0.7145   -6.1875    0.0000 C   0  0  0  0  0  0  0  0  0  0  0  0
    0.7145   -5.3625    0.0000 C   0  0  0  0  0  0  0  0  0  0  0  0
    0.0000   -4.9500    0.0000 C   0  0  0  0  0  0  0  0  0  0  0  0
    0.0000   -4.1250    0.0000 C   0  0  0  0  0  0  0  0  0  0  0  0
    0.7145   -3.7125    0.0000 C   0  0  0  0  0  0  0  0  0  0  0  0
    1.4289   -4.1250    0.0000 C   0  0  0  0  0  0  0  0  0  0  0  0
    1.4289   -4.9500    0.0000 C   0  0  0  0  0  0  0  0  0  0  0  0
    0.7145   -2.8875    0.0000 N   0  0  0  0  0  0  0  0  0  0  0  0
    1.4289   -2.4750    0.0000 N   0  0  0  0  0  0  0  0  0  0  0  0
    1.4289   -1.6500    0.0000 C   0  0  0  0  0  0  0  0  0  0  0  0
    0.7145   -1.2375    0.0000 C   0  0  0  0  0  0  0  0  0  0  0  0
    0.0000   -1.6500    0.0000 O   0  0  0  0  0  0  0  0  0  0  0  0
    0.7145   -0.4125    0.0000 C   0  0  0  0  0  0  0  0  0  0  0  0
    1.4289    0.0000    0.0000 C   0  0  0  0  0  0  0  0  0  0  0  0
    2.1434   -0.4125    0.0000 C   0  0  0  0  0  0  0  0  0  0  0  0
    2.8579    0.0000    0.0000 C   0  0  0  0  0  0  0  0  0  0  0  0
    3.5724   -0.4125    0.0000 C   0  0  0  0  0  0  0  0  0  0  0  0
    3.5724   -1.2375    0.0000 C   0  0  0  0  0  0  0  0  0  0  0  0
    2.8579   -1.6500    0.0000 C   0  0  0  0  0  0  0  0  0  0  0  0
    2.1434   -1.2375    0.0000 C   0  0  0  0  0  0  0  0  0  0  0  0
   -0.7145   -3.7125    0.0000 N   0  3  0  0  0  0  0  0  0  0  0  0
   -0.7145   -2.8875    0.0000 O   0  5  0  0  0  0  0  0  0  0  0  0
   -1.4289   -4.1250    0.0000 O   0  0  0  0  0  0  0  0  0  0  0  0
  1  2  1  0  0  0  0
  2  3  1  0  0  0  0
  3  4  2  0  0  0  0
  4  5  1  0  0  0  0
  5  6  2  0  0  0  0
  6  7  1  0  0  0  0
  2  7  2  0  0  0  0
  8  5  1  4  0  0  0
  8  9  2  0  0  0  0
  9 10  1  0  0  0  0
 10 11  2  0  0  0  0
 11 12  1  0  0  0  0
 11 13  1  0  0  0  0
 13 14  2  0  0  0  0
 14 15  1  0  0  0  0
 15 16  2  0  0  0  0
 16 17  1  0  0  0  0
 17 18  2  0  0  0  0
 18 19  1  0  0  0  0
 19 20  2  0  0  0  0
 15 20  1  0  0  0  0
 10 20  1  0  0  0  0
  4 21  1  0  0  0  0
 21 22  1  0  0  0  0
 21 23  2  0  0  0  0
M  CHG  2  21   1  22  -1
M  END
> <ChemID>
201874

> <CAS>
2425-85-6

> <Original_SMILES>
Cc1cc(c(cc1)/N=N/c1c(O)ccc2ccccc21)[N+]([O-])=O

> <preferred_name>
C.I. Pigment Red 3

> <dsstox_substance_id>
DTXSID8021226

> <dsstox_compound_id>
DTXCID80809831

> <qc_level>


> <Canonical_QSARr>
CC1C=C(C(=CC=1)N=NC1=C(O)C=CC2=CC=CC=C21)[N+]([O-])=O

> <InChI_Code_QSARr>
InChI=1S/C17H13N3O3/c1-11-6-8-14(15(10-11)20(22)23)18-19-17-13-5-3-2-4-12(13)7-9-16(17)21/h2-10,21H,1H3

> <InChI Key_QSARr>
ZLFVRXUOSPRRKQ-UHFFFAOYSA-N

> <Salt_Solvent>


> <Salt_Solvent_ID>
0

> <MPID>
101494

> <Tr_1_Tst_0>
1

> <Ready_Biodeg>
0.0

$$$$
Row1460
  Mrv171c012251911052D          

 26 29  0  0  0  0            999 V2000
    2.3800    2.0410    0.0000 C   0  0  0  0  0  0  0  0  0  0  0  0
    3.0945    1.6285    0.0000 C   0  0  0  0  0  0  0  0  0  0  0  0
    3.0945    0.8035    0.0000 C   0  0  0  0  0  0  0  0  0  0  0  0
    3.8089    0.3910    0.0000 C   0  0  0  0  0  0  0  0  0  0  0  0
    3.8089   -0.4340    0.0000 C   0  0  0  0  0  0  0  0  0  0  0  0
    3.0945   -0.8465    0.0000 C   0  0  0  0  0  0  0  0  0  0  0  0
    3.0945   -1.6715    0.0000 C   0  0  0  0  0  0  0  0  0  0  0  0
    2.3800   -2.0840    0.0000 C   0  0  0  0  0  0  0  0  0  0  0  0
    3.8089   -2.0840    0.0000 C   0  0  0  0  0  0  0  0  0  0  0  0
    3.8089   -2.9090    0.0000 O   0  0  0  0  0  0  0  0  0  0  0  0
    4.5234   -3.3215    0.0000 C   0  0  0  0  0  0  0  0  0  0  0  0
    4.5234   -4.1465    0.0000 C   0  0  0  0  0  0  0  0  0  0  0  0
    4.1109   -4.8610    0.0000 C   0  0  0  0  0  0  0  0  0  0  0  0
    4.9359   -4.8610    0.0000 O   0  0  0  0  0  0  0  0  0  0  0  0
    4.5234   -1.6715    0.0000 C   0  0  0  0  0  0  0  0  0  0  0  0
    5.2379   -2.0840    0.0000 C   0  0  0  0  0  0  0  0  0  0  0  0
    4.5234   -0.8465    0.0000 C   0  0  0  0  0  0  0  0  0  0  0  0
    4.5234    0.8035    0.0000 C   0  0  0  0  0  0  0  0  0  0  0  0
    4.5234    1.6285    0.0000 C   0  0  0  0  0  0  0  0  0  0  0  0
    5.2379    2.0410    0.0000 C   0  0  0  0  0  0  0  0  0  0  0  0
    3.8089    2.0410    0.0000 C   0  0  0  0  0  0  0  0  0  0  0  0
    3.8089    2.8660    0.0000 O   0  0  0  0  0  0  0  0  0  0  0  0
    4.5234    3.2785    0.0000 C   0  0  0  0  0  0  0  0  0  0  0  0
    4.5234    4.1035    0.0000 C   0  0  0  0  0  0  0  0  0  0  0  0
    4.9359    4.8180    0.0000 C   0  0  0  0  0  0  0  0  0  0  0  0
    4.1109    4.8180    0.0000 O   0  0  0  0  0  0  0  0  0  0  0  0
  1  2  1  0  0  0  0
  3  2  2  0  0  0  0
  4  3  1  0  0  0  0
  4  5  1  0  0  0  0
  6  5  2  0  0  0  0
  7  6  1  0  0  0  0
  7  8  1  0  0  0  0
  9  7  2  0  0  0  0
  9 10  1  0  0  0  0
 10 11  1  0  0  0  0
 11 12  1  0  0  0  0
 13 12  1  0  0  0  0
 14 13  1  0  0  0  0
 12 14  1  0  0  0  0
 15  9  1  0  0  0  0
 15 16  1  0  0  0  0
 17 15  2  0  0  0  0
  5 17  1  0  0  0  0
 18  4  2  0  0  0  0
 19 18  1  0  0  0  0
 19 20  1  0  0  0  0
 21 19  2  0  0  0  0
  2 21  1  0  0  0  0
 21 22  1  0  0  0  0
 22 23  1  0  0  0  0
 23 24  1  0  0  0  0
 25 24  1  0  0  0  0
 26 25  1  0  0  0  0
 24 26  1  0  0  0  0
M  END
> <ChemID>
201876

> <CAS>
85954-11-6

> <Original_SMILES>
Cc1cc(cc(C)c1OCC1CO1)-c1cc(C)c(OCC2CO2)c(C)c1

> <preferred_name>


> <dsstox_substance_id>


> <dsstox_compound_id>


> <qc_level>


> <Canonical_QSARr>
CC1C=C(C=C(C)C=1OCC1CO1)C1=CC(C)=C(OCC2CO2)C(C)=C1

> <InChI_Code_QSARr>
InChI=1S/C22H26O4/c1-13-5-17(6-14(2)21(13)25-11-19-9-23-19)18-7-15(3)22(16(4)8-18)26-12-20-10-24-20/h5-8,19-20H,9-12H2,1-4H3

> <InChI Key_QSARr>
HRSLYNJTMYIRHM-UHFFFAOYSA-N

> <Salt_Solvent>


> <Salt_Solvent_ID>
0

> <MPID>
101495

> <Tr_1_Tst_0>
1

> <Ready_Biodeg>
0.0

$$$$
Row1461
  Mrv171c012251911052D          

 14 15  0  0  0  0            999 V2000
   -2.7485   -1.8857    0.0000 C   0  0  0  0  0  0  0  0  0  0  0  0
   -2.0340   -1.4732    0.0000 C   0  0  0  0  0  0  0  0  0  0  0  0
   -1.3195   -1.8857    0.0000 C   0  0  0  0  0  0  0  0  0  0  0  0
   -0.6050   -1.4732    0.0000 C   0  0  0  0  0  0  0  0  0  0  0  0
   -0.6050   -0.6482    0.0000 C   0  0  0  0  0  0  0  0  0  0  0  0
   -1.3195   -0.2357    0.0000 C   0  0  0  0  0  0  0  0  0  0  0  0
   -1.3195    0.5893    0.0000 O   0  0  0  0  0  0  0  0  0  0  0  0
   -2.0340    1.0018    0.0000 C   0  0  0  0  0  0  0  0  0  0  0  0
   -2.0340    1.8268    0.0000 C   0  0  0  0  0  0  0  0  0  0  0  0
   -2.7485    2.2393    0.0000 C   0  0  0  0  0  0  0  0  0  0  0  0
   -3.4629    1.8268    0.0000 C   0  0  0  0  0  0  0  0  0  0  0  0
   -3.4629    1.0018    0.0000 C   0  0  0  0  0  0  0  0  0  0  0  0
   -2.7485    0.5893    0.0000 C   0  0  0  0  0  0  0  0  0  0  0  0
   -2.0340   -0.6482    0.0000 C   0  0  0  0  0  0  0  0  0  0  0  0
  1  2  1  0  0  0  0
  3  2  2  0  0  0  0
  4  3  1  0  0  0  0
  5  4  2  0  0  0  0
  6  5  1  0  0  0  0
  6  7  1  0  0  0  0
  7  8  1  0  0  0  0
  9  8  2  0  0  0  0
 10  9  1  0  0  0  0
 11 10  2  0  0  0  0
 12 11  1  0  0  0  0
 13 12  2  0  0  0  0
  8 13  1  0  0  0  0
 14  6  2  0  0  0  0
  2 14  1  0  0  0  0
M  END
> <ChemID>
201880

> <CAS>
3586-14-9

> <Original_SMILES>
Cc1cc(ccc1)Oc1ccccc1

> <preferred_name>
1-Methyl-3-phenoxybenzene

> <dsstox_substance_id>
DTXSID8027537

> <dsstox_compound_id>
DTXCID407537

> <qc_level>


> <Canonical_QSARr>
CC1C=C(C=CC=1)OC1C=CC=CC=1

> <InChI_Code_QSARr>
InChI=1S/C13H12O/c1-11-6-5-9-13(10-11)14-12-7-3-2-4-8-12/h2-10H,1H3

> <InChI Key_QSARr>
UDONPJKEOAWFGI-UHFFFAOYSA-N

> <Salt_Solvent>


> <Salt_Solvent_ID>
0

> <MPID>
101496

> <Tr_1_Tst_0>
1

> <Ready_Biodeg>
0.0

$$$$
Row1462
  Mrv171c012251911052D          

 39 45  0  0  0  0            999 V2000
   -2.3649    2.2244    0.0000 C   0  0  0  0  0  0  0  0  0  0  0  0
   -1.5444    2.1384    0.0000 N   0  0  0  0  0  0  0  0  0  0  0  0
   -1.0596    2.8060    0.0000 C   0  0  0  0  0  0  0  0  0  0  0  0
   -0.2391    2.7200    0.0000 C   0  0  0  0  0  0  0  0  0  0  0  0
    0.2456    3.3876    0.0000 C   0  0  0  0  0  0  0  0  0  0  0  0
   -0.0902    4.1411    0.0000 C   0  0  0  0  0  0  0  0  0  0  0  0
   -0.9107    4.2271    0.0000 C   0  0  0  0  0  0  0  0  0  0  0  0
   -1.3954    3.5596    0.0000 C   0  0  0  0  0  0  0  0  0  0  0  0
   -1.2086    1.3848    0.0000 C   0  0  0  0  0  0  0  0  0  0  0  0
   -1.6933    0.7172    0.0000 C   0  0  0  0  0  0  0  0  0  0  0  0
   -1.3575   -0.0363    0.0000 C   0  0  0  0  0  0  0  0  0  0  0  0
   -0.5370   -0.1223    0.0000 C   0  0  0  0  0  0  0  0  0  0  0  0
   -0.0523    0.5452    0.0000 C   0  0  0  0  0  0  0  0  0  0  0  0
    0.7682    0.4592    0.0000 O   0  0  0  0  0  0  0  0  0  0  0  0
    1.1040   -0.2943    0.0000 C   0  0  0  0  0  0  0  0  0  0  0  0
    1.9245   -0.3803    0.0000 C   0  0  0  0  0  0  0  0  0  0  0  0
    2.2603   -1.1339    0.0000 C   0  0  0  0  0  0  0  0  0  0  0  0
    3.0808   -1.2199    0.0000 C   0  0  0  0  0  0  0  0  0  0  0  0
    1.7755   -1.8015    0.0000 C   0  0  0  0  0  0  0  0  0  0  0  0
    2.1113   -2.5551    0.0000 N   0  0  0  0  0  0  0  0  0  0  0  0
    2.9318   -2.6411    0.0000 C   0  0  0  0  0  0  0  0  0  0  0  0
    3.2676   -3.3947    0.0000 C   0  0  0  0  0  0  0  0  0  0  0  0
    4.0881   -3.4807    0.0000 C   0  0  0  0  0  0  0  0  0  0  0  0
    4.5728   -2.8131    0.0000 C   0  0  0  0  0  0  0  0  0  0  0  0
    4.2370   -2.0595    0.0000 C   0  0  0  0  0  0  0  0  0  0  0  0
    3.4165   -1.9735    0.0000 C   0  0  0  0  0  0  0  0  0  0  0  0
    0.9550   -1.7155    0.0000 C   0  0  0  0  0  0  0  0  0  0  0  0
    0.6193   -0.9619    0.0000 C   0  0  0  0  0  0  0  0  0  0  0  0
   -0.2013   -0.8759    0.0000 C   0  0  0  0  0  0  0  0  0  0  0  0
    0.0539   -1.6605    0.0000 O   0  0  0  0  0  0  0  0  0  0  0  0
   -0.6134   -2.1456    0.0000 C   0  0  0  0  0  0  0  0  0  0  0  0
   -0.6131   -2.9706    0.0000 O   0  0  0  0  0  0  0  0  0  0  0  0
   -1.2810   -1.6609    0.0000 C   0  0  0  0  0  0  0  0  0  0  0  0
   -2.0879   -1.8326    0.0000 C   0  0  0  0  0  0  0  0  0  0  0  0
   -2.6401   -1.2197    0.0000 C   0  0  0  0  0  0  0  0  0  0  0  0
   -2.3854   -0.4350    0.0000 C   0  0  0  0  0  0  0  0  0  0  0  0
   -1.5785   -0.2632    0.0000 C   0  0  0  0  0  0  0  0  0  0  0  0
   -1.0263   -0.8762    0.0000 C   0  0  0  0  0  0  0  0  0  0  0  0
   -0.3881    1.2988    0.0000 C   0  0  0  0  0  0  0  0  0  0  0  0
  1  2  1  0  0  0  0
  2  3  1  0  0  0  0
  4  3  1  0  0  0  0
  5  4  1  0  0  0  0
  6  5  1  0  0  0  0
  7  6  1  0  0  0  0
  8  7  1  0  0  0  0
  3  8  1  0  0  0  0
  2  9  1  0  0  0  0
 10  9  2  0  0  0  0
 11 10  1  0  0  0  0
 12 11  2  0  0  0  0
 12 13  1  0  0  0  0
 13 14  1  0  0  0  0
 14 15  1  0  0  0  0
 16 15  2  0  0  0  0
 17 16  1  0  0  0  0
 17 18  1  0  0  0  0
 19 17  2  0  0  0  0
 19 20  1  0  0  0  0
 20 21  1  0  0  0  0
 22 21  2  0  0  0  0
 23 22  1  0  0  0  0
 24 23  2  0  0  0  0
 25 24  1  0  0  0  0
 26 25  2  0  0  0  0
 21 26  1  0  0  0  0
 27 19  1  0  0  0  0
 28 27  2  0  0  0  0
 15 28  1  0  0  0  0
 28 29  1  0  0  0  0
 29 12  1  0  0  0  0
 30 29  1  0  0  0  0
 31 30  1  0  0  0  0
 31 32  2  0  0  0  0
 33 31  1  0  0  0  0
 33 34  2  0  0  0  0
 34 35  1  0  0  0  0
 35 36  2  0  0  0  0
 36 37  1  0  0  0  0
 37 38  2  0  0  0  0
 29 38  1  0  0  0  0
 38 33  1  0  0  0  0
 39 13  2  0  0  0  0
  9 39  1  0  0  0  0
M  END
> <ChemID>
201884

> <CAS>
55250-84-5

> <Original_SMILES>
Cc1cc2Oc3cc(ccc3C3(OC(=O)c4ccccc34)c2cc1Nc1ccccc1)N(C)C1CCCCC1

> <preferred_name>


> <dsstox_substance_id>


> <dsstox_compound_id>


> <qc_level>


> <Canonical_QSARr>
CC1C=C2OC3=CC(=CC=C3C3(OC(=O)C4=CC=CC=C34)C2=CC=1NC1C=CC=CC=1)N(C)C1CCCCC1

> <InChI_Code_QSARr>
InChI=1S/C34H32N2O3/c1-22-19-31-29(21-30(22)35-23-11-5-3-6-12-23)34(27-16-10-9-15-26(27)33(37)39-34)28-18-17-25(20-32(28)38-31)36(2)24-13-7-4-8-14-24/h3,5-6,9-12,15-21,24,35H,4,7-8,13-14H2,1-2H3

> <InChI Key_QSARr>
CEGHCPGGKKWOKF-UHFFFAOYSA-N

> <Salt_Solvent>


> <Salt_Solvent_ID>
0

> <MPID>
101497

> <Tr_1_Tst_0>
1

> <Ready_Biodeg>
0.0

$$$$
Row1463
  Mrv171c012251911052D          

 27 29  0  0  0  0            999 V2000
    1.8267    3.0173    0.0000 C   0  0  0  0  0  0  0  0  0  0  0  0
    1.8267    2.1923    0.0000 C   0  0  0  0  0  0  0  0  0  0  0  0
    1.1122    1.7798    0.0000 C   0  0  0  0  0  0  0  0  0  0  0  0
    1.1122    0.9548    0.0000 C   0  0  0  0  0  0  0  0  0  0  0  0
    0.3977    0.5423    0.0000 N   0  0  0  0  0  0  0  0  0  0  0  0
    0.3977   -0.2827    0.0000 C   0  0  0  0  0  0  0  0  0  0  0  0
   -0.3167   -0.6952    0.0000 C   0  0  0  0  0  0  0  0  0  0  0  0
   -1.0312   -0.2827    0.0000 O   0  0  0  0  0  0  0  0  0  0  0  0
   -0.3167   -1.5202    0.0000 N   0  0  0  0  0  0  0  0  0  0  0  0
    0.3977   -1.9327    0.0000 C   0  0  0  0  0  0  0  0  0  0  0  0
    0.3977   -2.7577    0.0000 O   0  0  0  0  0  0  0  0  0  0  0  0
    1.1122   -1.5202    0.0000 N   0  0  0  0  0  0  0  0  0  0  0  0
    1.1122   -0.6952    0.0000 C   0  0  0  0  0  0  0  0  0  0  0  0
    1.8267   -0.2827    0.0000 N   0  0  0  0  0  0  0  0  0  0  0  0
    2.5411   -0.6952    0.0000 C   0  0  0  0  0  0  0  0  0  0  0  0
    3.2556   -0.2827    0.0000 C   0  0  0  0  0  0  0  0  0  0  0  0
    3.2556    0.5423    0.0000 O   0  0  0  0  0  0  0  0  0  0  0  0
    3.9701   -0.6952    0.0000 C   0  0  0  0  0  0  0  0  0  0  0  0
    3.9701   -1.5202    0.0000 O   0  0  0  0  0  0  0  0  0  0  0  0
    4.6846   -0.2827    0.0000 C   0  0  0  0  0  0  0  0  0  0  0  0
    4.6846    0.5423    0.0000 O   0  0  0  0  0  0  0  0  0  0  0  0
    5.3990   -0.6952    0.0000 C   0  0  0  0  0  0  0  0  0  0  0  0
    6.1135   -0.2827    0.0000 O   0  0  0  0  0  0  0  0  0  0  0  0
    1.8267    0.5423    0.0000 C   0  0  0  0  0  0  0  0  0  0  0  0
    2.5411    0.9548    0.0000 C   0  0  0  0  0  0  0  0  0  0  0  0
    2.5411    1.7798    0.0000 C   0  0  0  0  0  0  0  0  0  0  0  0
    3.2556    2.1923    0.0000 C   0  0  0  0  0  0  0  0  0  0  0  0
  1  2  1  0  0  0  0
  3  2  2  0  0  0  0
  4  3  1  0  0  0  0
  4  5  1  0  0  0  0
  5  6  2  0  0  0  0
  7  6  1  0  0  0  0
  7  8  2  0  0  0  0
  9  7  1  0  0  0  0
 10  9  1  0  0  0  0
 10 11  2  0  0  0  0
 12 10  1  0  0  0  0
 13 12  2  0  0  0  0
  6 13  1  0  0  0  0
 13 14  1  0  0  0  0
 14 15  1  0  0  0  0
 15 16  1  0  0  0  0
 16 17  1  0  0  0  0
 16 18  1  0  0  0  0
 18 19  1  0  0  0  0
 18 20  1  0  0  0  0
 20 21  1  0  0  0  0
 20 22  1  0  0  0  0
 22 23  1  0  0  0  0
 14 24  1  0  0  0  0
 24  4  2  0  0  0  0
 25 24  1  0  0  0  0
 26 25  2  0  0  0  0
  2 26  1  0  0  0  0
 26 27  1  0  0  0  0
M  END
> <ChemID>
201885

> <CAS>
83-88-5

> <Original_SMILES>
Cc1cc2c(cc1C)N=C1C(=NC(=O)NC1=O)N2CC(O)C(O)C(O)CO

> <preferred_name>
Riboflavin

> <dsstox_substance_id>
DTXSID8021777

> <dsstox_compound_id>
DTXCID401777

> <qc_level>


> <Canonical_QSARr>
CC1=CC2=C(C=C1C)N=C1C(=NC(=O)NC1=O)N2CC(O)C(O)C(O)CO

> <InChI_Code_QSARr>
InChI=1S/C17H20N4O6/c1-7-3-9-10(4-8(7)2)21(5-11(23)14(25)12(24)6-22)15-13(18-9)16(26)20-17(27)19-15/h3-4,11-12,14,22-25H,5-6H2,1-2H3,(H,20,26,27)

> <InChI Key_QSARr>
AUNGANRZJHBGPY-UHFFFAOYSA-N

> <Salt_Solvent>


> <Salt_Solvent_ID>
0

> <MPID>
101498

> <Tr_1_Tst_0>
0

> <Ready_Biodeg>
0.0

$$$$
Row1464
  Mrv171c012251911052D          

 11 11  0  0  0  0            999 V2000
   -1.7891   -1.5320    0.0000 C   0  0  0  0  0  0  0  0  0  0  0  0
   -1.0746   -1.1195    0.0000 C   0  0  0  0  0  0  0  0  0  0  0  0
   -0.3602   -1.5320    0.0000 C   0  0  0  0  0  0  0  0  0  0  0  0
   -1.0746   -0.2945    0.0000 C   0  0  0  0  0  0  0  0  0  0  0  0
   -0.3602    0.1180    0.0000 C   0  0  0  0  0  0  0  0  0  0  0  0
   -0.3602    0.9430    0.0000 C   0  0  0  0  0  0  0  0  0  0  0  0
   -1.0746    1.3555    0.0000 C   0  0  0  0  0  0  0  0  0  0  0  0
   -1.0746    2.1805    0.0000 C   0  0  0  0  0  0  0  0  0  0  0  0
   -1.7891    0.9430    0.0000 C   0  0  0  0  0  0  0  0  0  0  0  0
   -1.7891    0.1180    0.0000 C   0  0  0  0  0  0  0  0  0  0  0  0
   -2.5036   -0.2945    0.0000 O   0  0  0  0  0  0  0  0  0  0  0  0
  1  2  1  0  0  0  0
  2  3  1  0  0  0  0
  2  4  1  0  0  0  0
  5  4  2  0  0  0  0
  6  5  1  0  0  0  0
  7  6  2  0  0  0  0
  7  8  1  0  0  0  0
  9  7  1  0  0  0  0
 10  9  2  0  0  0  0
  4 10  1  0  0  0  0
 10 11  1  0  0  0  0
M  END
> <ChemID>
201886

> <CAS>
89-83-8

> <Original_SMILES>
Cc1ccc(C(C)C)c(O)c1

> <preferred_name>
Thymol

> <dsstox_substance_id>
DTXSID6034972

> <dsstox_compound_id>
DTXCID4014972

> <qc_level>


> <Canonical_QSARr>
CC1C=C(O)C(=CC=1)C(C)C

> <InChI_Code_QSARr>
InChI=1S/C10H14O/c1-7(2)9-5-4-8(3)6-10(9)11/h4-7,11H,1-3H3

> <InChI Key_QSARr>
MGSRCZKZVOBKFT-UHFFFAOYSA-N

> <Salt_Solvent>


> <Salt_Solvent_ID>
0

> <MPID>
101499

> <Tr_1_Tst_0>
1

> <Ready_Biodeg>
0.0

$$$$
Row1465
  Mrv171c012251911052D          

 10 10  0  0  0  0            999 V2000
   -0.1267   -2.0787    0.0000 C   0  0  0  0  0  0  0  0  0  0  0  0
   -0.1267   -1.2537    0.0000 C   0  0  0  0  0  0  0  0  0  0  0  0
    0.5878   -0.8412    0.0000 C   0  0  0  0  0  0  0  0  0  0  0  0
    0.5878   -0.0162    0.0000 C   0  0  0  0  0  0  0  0  0  0  0  0
   -0.1267    0.3963    0.0000 C   0  0  0  0  0  0  0  0  0  0  0  0
   -0.1267    1.2213    0.0000 C   0  0  0  0  0  0  0  0  0  0  0  0
   -0.8412   -0.0162    0.0000 C   0  0  0  0  0  0  0  0  0  0  0  0
   -1.5556    0.3963    0.0000 O   0  0  0  0  0  0  0  0  0  0  0  0
   -0.8412   -0.8412    0.0000 C   0  0  0  0  0  0  0  0  0  0  0  0
   -1.5556   -1.2537    0.0000 C   0  0  0  0  0  0  0  0  0  0  0  0
  1  2  1  0  0  0  0
  3  2  2  0  0  0  0
  4  3  1  0  0  0  0
  5  4  2  0  0  0  0
  5  6  1  0  0  0  0
  7  5  1  0  0  0  0
  7  8  1  0  0  0  0
  9  7  2  0  0  0  0
  2  9  1  0  0  0  0
  9 10  1  0  0  0  0
M  END
> <ChemID>
201887

> <CAS>
2416-94-6

> <Original_SMILES>
Cc1ccc(C)c(O)c1C

> <preferred_name>
2,3,6-Trimethylphenol

> <dsstox_substance_id>
DTXSID6022187

> <dsstox_compound_id>
DTXCID602187

> <qc_level>


> <Canonical_QSARr>
CC1=CC=C(C)C(O)=C1C

> <InChI_Code_QSARr>
InChI=1S/C9H12O/c1-6-4-5-7(2)9(10)8(6)3/h4-5,10H,1-3H3

> <InChI Key_QSARr>
QQOMQLYQAXGHSU-UHFFFAOYSA-N

> <Salt_Solvent>


> <Salt_Solvent_ID>
0

> <MPID>
101500

> <Tr_1_Tst_0>
1

> <Ready_Biodeg>
0.0

$$$$
Row1466
  Mrv171c012251911052D          

  9  9  0  0  0  0            999 V2000
   -0.9748   -1.7998    0.0000 C   0  0  0  0  0  0  0  0  0  0  0  0
   -0.9748   -0.9748    0.0000 C   0  0  0  0  0  0  0  0  0  0  0  0
   -0.2603   -0.5623    0.0000 C   0  0  0  0  0  0  0  0  0  0  0  0
   -0.2603    0.2627    0.0000 C   0  0  0  0  0  0  0  0  0  0  0  0
   -0.9748    0.6752    0.0000 C   0  0  0  0  0  0  0  0  0  0  0  0
   -0.9748    1.5002    0.0000 C   0  0  0  0  0  0  0  0  0  0  0  0
   -1.6892    1.9127    0.0000 O   0  0  0  0  0  0  0  0  0  0  0  0
   -1.6892    0.2627    0.0000 C   0  0  0  0  0  0  0  0  0  0  0  0
   -1.6892   -0.5623    0.0000 C   0  0  0  0  0  0  0  0  0  0  0  0
  1  2  1  0  0  0  0
  3  2  2  0  0  0  0
  4  3  1  0  0  0  0
  5  4  2  0  0  0  0
  5  6  1  0  0  0  0
  6  7  2  0  0  0  0
  8  5  1  0  0  0  0
  9  8  2  0  0  0  0
  2  9  1  0  0  0  0
M  END
> <ChemID>
201888

> <CAS>
104-87-0

> <Original_SMILES>
Cc1ccc(C=O)cc1

> <preferred_name>
4-Methylbenzaldehyde

> <dsstox_substance_id>
DTXSID9041520

> <dsstox_compound_id>
DTXCID7021520

> <qc_level>


> <Canonical_QSARr>
CC1=CC=C(C=C1)C=O

> <InChI_Code_QSARr>
InChI=1S/C8H8O/c1-7-2-4-8(6-9)5-3-7/h2-6H,1H3

> <InChI Key_QSARr>
FXLOVSHXALFLKQ-UHFFFAOYSA-N

> <Salt_Solvent>


> <Salt_Solvent_ID>
0

> <MPID>
101501

> <Tr_1_Tst_0>
1

> <Ready_Biodeg>
1.0

$$$$
Row1467
  Mrv171c012251911052D          

  9  9  0  0  0  0            999 V2000
   -0.5746   -1.3995    0.0000 C   0  0  0  0  0  0  0  0  0  0  0  0
   -0.5746   -0.5745    0.0000 C   0  0  0  0  0  0  0  0  0  0  0  0
    0.1399   -0.1620    0.0000 C   0  0  0  0  0  0  0  0  0  0  0  0
    0.1399    0.6630    0.0000 C   0  0  0  0  0  0  0  0  0  0  0  0
   -0.5746    1.0755    0.0000 C   0  0  0  0  0  0  0  0  0  0  0  0
   -0.5746    1.9005    0.0000 Cl  0  0  0  0  0  0  0  0  0  0  0  0
   -1.2890    0.6630    0.0000 C   0  0  0  0  0  0  0  0  0  0  0  0
   -1.2890   -0.1620    0.0000 C   0  0  0  0  0  0  0  0  0  0  0  0
   -2.0035   -0.5745    0.0000 Cl  0  0  0  0  0  0  0  0  0  0  0  0
  1  2  1  0  0  0  0
  3  2  2  0  0  0  0
  4  3  1  0  0  0  0
  5  4  2  0  0  0  0
  5  6  1  0  0  0  0
  7  5  1  0  0  0  0
  8  7  2  0  0  0  0
  2  8  1  0  0  0  0
  8  9  1  0  0  0  0
M  END
> <ChemID>
201891

> <CAS>
95-73-8

> <Original_SMILES>
Cc1ccc(Cl)cc1Cl

> <preferred_name>
2,4-Dichlorotoluene

> <dsstox_substance_id>
DTXSID5040702

> <dsstox_compound_id>
DTXCID3020702

> <qc_level>


> <Canonical_QSARr>
CC1=CC=C(Cl)C=C1Cl

> <InChI_Code_QSARr>
InChI=1S/C7H6Cl2/c1-5-2-3-6(8)4-7(5)9/h2-4H,1H3

> <InChI Key_QSARr>
FUNUTBJJKQIVSY-UHFFFAOYSA-N

> <Salt_Solvent>


> <Salt_Solvent_ID>
0

> <MPID>
101502

> <Tr_1_Tst_0>
1

> <Ready_Biodeg>
0.0

$$$$
Row1468
  Mrv171c012251911052D          

 12 12  0  0  0  0            999 V2000
    1.4290   -2.4750    0.0000 C   0  0  0  0  0  0  0  0  0  0  0  0
    1.4290   -1.6500    0.0000 C   0  0  0  0  0  0  0  0  0  0  0  0
    2.1434   -1.2375    0.0000 C   0  0  0  0  0  0  0  0  0  0  0  0
    2.1434   -0.4125    0.0000 C   0  0  0  0  0  0  0  0  0  0  0  0
    1.4290   -0.0000    0.0000 C   0  0  0  0  0  0  0  0  0  0  0  0
    1.4290    0.8250    0.0000 O   0  0  0  0  0  0  0  0  0  0  0  0
    0.7145   -0.4125    0.0000 C   0  0  0  0  0  0  0  0  0  0  0  0
    0.0000   -0.0000    0.0000 C   0  0  0  0  0  0  0  0  0  0  0  0
   -0.7144    0.4125    0.0000 C   0  0  0  0  0  0  0  0  0  0  0  0
   -0.4125   -0.7145    0.0000 C   0  0  0  0  0  0  0  0  0  0  0  0
    0.4125    0.7145    0.0000 C   0  0  0  0  0  0  0  0  0  0  0  0
    0.7145   -1.2375    0.0000 C   0  0  0  0  0  0  0  0  0  0  0  0
  1  2  1  0  0  0  0
  3  2  2  0  0  0  0
  4  3  1  0  0  0  0
  5  4  2  0  0  0  0
  5  6  1  0  0  0  0
  7  5  1  0  0  0  0
  7  8  1  0  0  0  0
  8  9  1  0  0  0  0
  8 10  1  0  0  0  0
  8 11  1  0  0  0  0
 12  7  2  0  0  0  0
  2 12  1  0  0  0  0
M  END
> <ChemID>
201894

> <CAS>
2409-55-4

> <Original_SMILES>
Cc1ccc(O)c(c1)C(C)(C)C

> <preferred_name>
2-tert-Butyl-4-methylphenol

> <dsstox_substance_id>
DTXSID2020212

> <dsstox_compound_id>
DTXCID00212

> <qc_level>


> <Canonical_QSARr>
CC1C=C(C(O)=CC=1)C(C)(C)C

> <InChI_Code_QSARr>
InChI=1S/C11H16O/c1-8-5-6-10(12)9(7-8)11(2,3)4/h5-7,12H,1-4H3

> <InChI Key_QSARr>
IKEHOXWJQXIQAG-UHFFFAOYSA-N

> <Salt_Solvent>


> <Salt_Solvent_ID>
0

> <MPID>
101503

> <Tr_1_Tst_0>
1

> <Ready_Biodeg>
0.0

$$$$
Row1469
  Mrv171c012251911052D          

 12 12  0  0  0  0            999 V2000
    1.2191   -2.0809    0.0000 C   0  0  0  0  0  0  0  0  0  0  0  0
    1.2191   -1.2559    0.0000 C   0  0  0  0  0  0  0  0  0  0  0  0
    1.9335   -0.8434    0.0000 C   0  0  0  0  0  0  0  0  0  0  0  0
    1.9335   -0.0184    0.0000 C   0  0  0  0  0  0  0  0  0  0  0  0
    1.2191    0.3941    0.0000 C   0  0  0  0  0  0  0  0  0  0  0  0
    1.2191    1.2191    0.0000 C   0  0  0  0  0  0  0  0  0  0  0  0
    1.2191    2.0441    0.0000 C   0  0  0  0  0  0  0  0  0  0  0  0
    2.0441    1.2191    0.0000 C   0  0  0  0  0  0  0  0  0  0  0  0
    0.3941    1.2191    0.0000 C   0  0  0  0  0  0  0  0  0  0  0  0
    0.5046   -0.0184    0.0000 C   0  0  0  0  0  0  0  0  0  0  0  0
   -0.2099    0.3941    0.0000 O   0  0  0  0  0  0  0  0  0  0  0  0
    0.5046   -0.8434    0.0000 C   0  0  0  0  0  0  0  0  0  0  0  0
  1  2  1  0  0  0  0
  3  2  2  0  0  0  0
  4  3  1  0  0  0  0
  5  4  2  0  0  0  0
  5  6  1  0  0  0  0
  6  7  1  0  0  0  0
  6  8  1  0  0  0  0
  6  9  1  0  0  0  0
 10  5  1  0  0  0  0
 10 11  1  0  0  0  0
 12 10  2  0  0  0  0
  2 12  1  0  0  0  0
M  END
> <ChemID>
201897

> <CAS>
88-60-8

> <Original_SMILES>
Cc1ccc(c(O)c1)C(C)(C)C

> <preferred_name>
2-tert-Butyl-5-methylphenol

> <dsstox_substance_id>
DTXSID2026529

> <dsstox_compound_id>
DTXCID806529

> <qc_level>


> <Canonical_QSARr>
CC1C=C(O)C(=CC=1)C(C)(C)C

> <InChI_Code_QSARr>
InChI=1S/C11H16O/c1-8-5-6-9(10(12)7-8)11(2,3)4/h5-7,12H,1-4H3

> <InChI Key_QSARr>
XOUQAVYLRNOXDO-UHFFFAOYSA-N

> <Salt_Solvent>


> <Salt_Solvent_ID>
0

> <MPID>
101504

> <Tr_1_Tst_0>
0

> <Ready_Biodeg>
0.0

$$$$
Row1470
  Mrv171c012251911052D          

 10 10  0  0  0  0            999 V2000
   -1.1270   -1.6500    0.0000 C   0  0  0  0  0  0  0  0  0  0  0  0
   -0.4125   -1.2375    0.0000 C   0  0  0  0  0  0  0  0  0  0  0  0
    0.3020   -1.6500    0.0000 O   0  0  0  0  0  0  0  0  0  0  0  0
   -0.4125   -0.4125    0.0000 C   0  0  0  0  0  0  0  0  0  0  0  0
    0.3020    0.0000    0.0000 C   0  0  0  0  0  0  0  0  0  0  0  0
    0.3020    0.8250    0.0000 C   0  0  0  0  0  0  0  0  0  0  0  0
   -0.4125    1.2375    0.0000 C   0  0  0  0  0  0  0  0  0  0  0  0
   -0.4125    2.0625    0.0000 C   0  0  0  0  0  0  0  0  0  0  0  0
   -1.1270    0.8250    0.0000 C   0  0  0  0  0  0  0  0  0  0  0  0
   -1.1270    0.0000    0.0000 C   0  0  0  0  0  0  0  0  0  0  0  0
  1  2  1  0  0  0  0
  2  3  2  0  0  0  0
  2  4  1  0  0  0  0
  5  4  2  0  0  0  0
  6  5  1  0  0  0  0
  7  6  2  0  0  0  0
  7  8  1  0  0  0  0
  9  7  1  0  0  0  0
 10  9  2  0  0  0  0
  4 10  1  0  0  0  0
M  END
> <ChemID>
201898

> <CAS>
122-00-9

> <Original_SMILES>
Cc1ccc(cc1)C(C)=O

> <preferred_name>
p-Methylacetophenone

> <dsstox_substance_id>
DTXSID9044374

> <dsstox_compound_id>
DTXCID7024374

> <qc_level>


> <Canonical_QSARr>
CC1C=CC(=CC=1)C(C)=O

> <InChI_Code_QSARr>
InChI=1S/C9H10O/c1-7-3-5-9(6-4-7)8(2)10/h3-6H,1-2H3

> <InChI Key_QSARr>
GNKZMNRKLCTJAY-UHFFFAOYSA-N

> <Salt_Solvent>


> <Salt_Solvent_ID>
0

> <MPID>
101505

> <Tr_1_Tst_0>
1

> <Ready_Biodeg>
1.0

$$$$
Row1471
  Mrv171c012251911052D          

 11 11  0  0  0  0            999 V2000
    0.3000   -2.1750    0.0000 C   0  0  0  0  0  0  0  0  0  0  0  0
    0.3000   -1.3500    0.0000 C   0  0  0  0  0  0  0  0  0  0  0  0
    1.0145   -0.9375    0.0000 C   0  0  0  0  0  0  0  0  0  0  0  0
    1.0145   -0.1125    0.0000 C   0  0  0  0  0  0  0  0  0  0  0  0
    0.3000    0.3000    0.0000 C   0  0  0  0  0  0  0  0  0  0  0  0
    0.3000    1.1250    0.0000 S   0  0  0  0  0  0  0  0  0  0  0  0
    0.3000    1.9500    0.0000 N   0  0  0  0  0  0  0  0  0  0  0  0
    1.1250    1.1250    0.0000 O   0  0  0  0  0  0  0  0  0  0  0  0
   -0.5250    1.1250    0.0000 O   0  0  0  0  0  0  0  0  0  0  0  0
   -0.4145   -0.1125    0.0000 C   0  0  0  0  0  0  0  0  0  0  0  0
   -0.4145   -0.9375    0.0000 C   0  0  0  0  0  0  0  0  0  0  0  0
  1  2  1  0  0  0  0
  3  2  2  0  0  0  0
  4  3  1  0  0  0  0
  5  4  2  0  0  0  0
  5  6  1  0  0  0  0
  6  7  1  0  0  0  0
  6  8  2  0  0  0  0
  6  9  2  0  0  0  0
 10  5  1  0  0  0  0
 11 10  2  0  0  0  0
  2 11  1  0  0  0  0
M  END
> <ChemID>
201902

> <CAS>
70-55-3

> <Original_SMILES>
Cc1ccc(cc1)S(N)(=O)=O

> <preferred_name>
4-Toluenesulfonamide

> <dsstox_substance_id>
DTXSID8029105

> <dsstox_compound_id>
DTXCID109105

> <qc_level>


> <Canonical_QSARr>
CC1=CC=C(C=C1)S(N)(=O)=O

> <InChI_Code_QSARr>
InChI=1S/C7H9NO2S/c1-6-2-4-7(5-3-6)11(8,9)10/h2-5H,1H3,(H2,8,9,10)

> <InChI Key_QSARr>
LMYRWZFENFIFIT-UHFFFAOYSA-N

> <Salt_Solvent>


> <Salt_Solvent_ID>
0

> <MPID>
101506

> <Tr_1_Tst_0>
1

> <Ready_Biodeg>
0.0

$$$$
Row1472
  Mrv171c012251911052D          

 11 11  0  0  0  0            999 V2000
   -0.9951   -1.8201    0.0000 C   0  0  0  0  0  0  0  0  0  0  0  0
   -0.9951   -0.9951    0.0000 C   0  0  0  0  0  0  0  0  0  0  0  0
   -0.2806   -0.5826    0.0000 C   0  0  0  0  0  0  0  0  0  0  0  0
   -0.2806    0.2424    0.0000 C   0  0  0  0  0  0  0  0  0  0  0  0
   -0.9951    0.6549    0.0000 C   0  0  0  0  0  0  0  0  0  0  0  0
   -0.9951    1.4799    0.0000 N   0  3  0  0  0  0  0  0  0  0  0  0
   -1.7095    1.8924    0.0000 O   0  5  0  0  0  0  0  0  0  0  0  0
   -0.2806    1.8924    0.0000 O   0  0  0  0  0  0  0  0  0  0  0  0
   -1.7095    0.2424    0.0000 C   0  0  0  0  0  0  0  0  0  0  0  0
   -1.7095   -0.5826    0.0000 C   0  0  0  0  0  0  0  0  0  0  0  0
   -2.4240   -0.9951    0.0000 Cl  0  0  0  0  0  0  0  0  0  0  0  0
  1  2  1  0  0  0  0
  3  2  2  0  0  0  0
  4  3  1  0  0  0  0
  5  4  2  0  0  0  0
  5  6  1  0  0  0  0
  6  7  1  0  0  0  0
  6  8  2  0  0  0  0
  9  5  1  0  0  0  0
 10  9  2  0  0  0  0
  2 10  1  0  0  0  0
 10 11  1  0  0  0  0
M  CHG  2   6   1   7  -1
M  END
> <ChemID>
201905

> <CAS>
121-86-8

> <Original_SMILES>
Cc1ccc(cc1Cl)[N+]([O-])=O

> <preferred_name>
2-Chloro-1-methyl-4-nitrobenzene

> <dsstox_substance_id>
DTXSID3026984

> <dsstox_compound_id>
DTXCID406984

> <qc_level>


> <Canonical_QSARr>
CC1=CC=C(C=C1Cl)[N+]([O-])=O

> <InChI_Code_QSARr>
InChI=1S/C7H6ClNO2/c1-5-2-3-6(9(10)11)4-7(5)8/h2-4H,1H3

> <InChI Key_QSARr>
LLYXJBROWQDVMI-UHFFFAOYSA-N

> <Salt_Solvent>


> <Salt_Solvent_ID>
0

> <MPID>
101507

> <Tr_1_Tst_0>
0

> <Ready_Biodeg>
0.0

$$$$
Row1473
  Mrv171c012251911052D          

 14 14  0  0  0  0            999 V2000
    0.9697   -1.6795    0.0000 C   0  0  0  0  0  0  0  0  0  0  0  0
    0.9697   -0.8545    0.0000 C   0  0  0  0  0  0  0  0  0  0  0  0
    1.6841   -0.4420    0.0000 C   0  0  0  0  0  0  0  0  0  0  0  0
    1.6841    0.3830    0.0000 C   0  0  0  0  0  0  0  0  0  0  0  0
    0.9697    0.7955    0.0000 C   0  0  0  0  0  0  0  0  0  0  0  0
    0.9697    1.6205    0.0000 N   0  3  0  0  0  0  0  0  0  0  0  0
    0.2552    2.0330    0.0000 O   0  5  0  0  0  0  0  0  0  0  0  0
    1.6841    2.0330    0.0000 O   0  0  0  0  0  0  0  0  0  0  0  0
    0.2552    0.3830    0.0000 C   0  0  0  0  0  0  0  0  0  0  0  0
    0.2552   -0.4420    0.0000 C   0  0  0  0  0  0  0  0  0  0  0  0
   -0.4593   -0.8545    0.0000 S   0  0  0  0  0  0  0  0  0  0  0  0
   -1.1738   -1.2670    0.0000 O   0  0  0  0  0  0  0  0  0  0  0  0
   -0.0468   -1.5689    0.0000 O   0  0  0  0  0  0  0  0  0  0  0  0
   -0.8718   -0.1400    0.0000 O   0  0  0  0  0  0  0  0  0  0  0  0
  1  2  1  0  0  0  0
  3  2  2  0  0  0  0
  4  3  1  0  0  0  0
  5  4  2  0  0  0  0
  5  6  1  0  0  0  0
  6  7  1  0  0  0  0
  6  8  2  0  0  0  0
  9  5  1  0  0  0  0
 10  9  2  0  0  0  0
  2 10  1  0  0  0  0
 10 11  1  0  0  0  0
 11 12  1  0  0  0  0
 11 13  2  0  0  0  0
 11 14  2  0  0  0  0
M  CHG  2   6   1   7  -1
M  END
> <ChemID>
201908

> <CAS>
121-03-9

> <Original_SMILES>
Cc1ccc(cc1S(O)(=O)=O)[N+]([O-])=O

> <preferred_name>
2-Methyl-5-nitrobenzenesulfonic acid

> <dsstox_substance_id>
DTXSID4026975

> <dsstox_compound_id>
DTXCID506975

> <qc_level>


> <Canonical_QSARr>
CC1=CC=C(C=C1S(O)(=O)=O)[N+]([O-])=O

> <InChI_Code_QSARr>
InChI=1S/C7H7NO5S/c1-5-2-3-6(8(9)10)4-7(5)14(11,12)13/h2-4H,1H3,(H,11,12,13)

> <InChI Key_QSARr>
ZDTXQHVBLWYPHS-UHFFFAOYSA-N

> <Salt_Solvent>


> <Salt_Solvent_ID>
0

> <MPID>
101508

> <Tr_1_Tst_0>
1

> <Ready_Biodeg>
0.0

$$$$
Row1474
  Mrv171c012251911052D          

 13 13  0  0  0  0            999 V2000
   -0.2198   -0.9519    0.0000 C   0  0  0  0  0  0  0  0  0  0  0  0
   -0.2198   -0.1269    0.0000 C   0  0  0  0  0  0  0  0  0  0  0  0
    0.4946    0.2856    0.0000 C   0  0  0  0  0  0  0  0  0  0  0  0
    0.4946    1.1106    0.0000 C   0  0  0  0  0  0  0  0  0  0  0  0
   -0.2198    1.5231    0.0000 C   0  0  0  0  0  0  0  0  0  0  0  0
   -0.2198    2.3481    0.0000 N   0  3  0  0  0  0  0  0  0  0  0  0
   -0.9343    2.7606    0.0000 O   0  5  0  0  0  0  0  0  0  0  0  0
    0.4946    2.7606    0.0000 O   0  0  0  0  0  0  0  0  0  0  0  0
   -0.9343    1.1106    0.0000 C   0  0  0  0  0  0  0  0  0  0  0  0
   -0.9343    0.2856    0.0000 C   0  0  0  0  0  0  0  0  0  0  0  0
   -1.6488   -0.1269    0.0000 N   0  3  0  0  0  0  0  0  0  0  0  0
   -1.6488   -0.9519    0.0000 O   0  5  0  0  0  0  0  0  0  0  0  0
   -2.3632    0.2856    0.0000 O   0  0  0  0  0  0  0  0  0  0  0  0
  1  2  1  0  0  0  0
  3  2  2  0  0  0  0
  4  3  1  0  0  0  0
  5  4  2  0  0  0  0
  5  6  1  0  0  0  0
  6  7  1  0  0  0  0
  6  8  2  0  0  0  0
  9  5  1  0  0  0  0
 10  9  2  0  0  0  0
  2 10  1  0  0  0  0
 10 11  1  0  0  0  0
 11 12  1  0  0  0  0
 11 13  2  0  0  0  0
M  CHG  4   6   1   7  -1  11   1  12  -1
M  END
> <ChemID>
201909

> <CAS>
121-14-2

> <Original_SMILES>
Cc1ccc(cc1[N+]([O-])=O)[N+]([O-])=O

> <preferred_name>


> <dsstox_substance_id>
DTXSID0020529

> <dsstox_compound_id>
DTXCID60529

> <qc_level>


> <Canonical_QSARr>
CC1=CC=C(C=C1[N+]([O-])=O)[N+]([O-])=O

> <InChI_Code_QSARr>
InChI=1S/C7H6N2O4/c1-5-2-3-6(8(10)11)4-7(5)9(12)13/h2-4H,1H3

> <InChI Key_QSARr>
RMBFBMJGBANMMK-UHFFFAOYSA-N

> <Salt_Solvent>


> <Salt_Solvent_ID>
0

> <MPID>
101509

> <Tr_1_Tst_0>
0

> <Ready_Biodeg>
0.0

$$$$
Row1475
  Mrv171c012251911052D          

 16 17  0  0  0  0            999 V2000
    1.2490    0.9829    0.0000 C   0  0  0  0  0  0  0  0  0  0  0  0
    0.5345    0.5704    0.0000 C   0  0  0  0  0  0  0  0  0  0  0  0
    0.5345   -0.2546    0.0000 C   0  0  0  0  0  0  0  0  0  0  0  0
   -0.1799   -0.6671    0.0000 C   0  0  0  0  0  0  0  0  0  0  0  0
   -0.1799   -1.4921    0.0000 C   0  0  0  0  0  0  0  0  0  0  0  0
    0.5345   -1.9046    0.0000 C   0  0  0  0  0  0  0  0  0  0  0  0
    1.2490   -1.4921    0.0000 C   0  0  0  0  0  0  0  0  0  0  0  0
    1.2490   -0.6671    0.0000 C   0  0  0  0  0  0  0  0  0  0  0  0
   -0.1799    0.9829    0.0000 C   0  0  0  0  0  0  0  0  0  0  0  0
   -0.1799    1.8079    0.0000 C   0  0  0  0  0  0  0  0  0  0  0  0
   -0.8944    2.2204    0.0000 C   0  0  0  0  0  0  0  0  0  0  0  0
   -1.6089    1.8079    0.0000 C   0  0  0  0  0  0  0  0  0  0  0  0
   -1.6089    0.9829    0.0000 C   0  0  0  0  0  0  0  0  0  0  0  0
   -2.3234    0.5704    0.0000 C   0  0  0  0  0  0  0  0  0  0  0  0
   -0.8944    0.5704    0.0000 C   0  0  0  0  0  0  0  0  0  0  0  0
   -0.8944   -0.2546    0.0000 C   0  0  0  0  0  0  0  0  0  0  0  0
  1  2  1  0  0  0  0
  2  3  1  0  0  0  0
  4  3  2  0  0  0  0
  5  4  1  0  0  0  0
  6  5  2  0  0  0  0
  7  6  1  0  0  0  0
  8  7  2  0  0  0  0
  3  8  1  0  0  0  0
  2  9  1  0  0  0  0
 10  9  2  0  0  0  0
 11 10  1  0  0  0  0
 12 11  2  0  0  0  0
 13 12  1  0  0  0  0
 13 14  1  0  0  0  0
 15 13  2  0  0  0  0
  9 15  1  0  0  0  0
 15 16  1  0  0  0  0
M  END
> <ChemID>
201910

> <CAS>
40766-31-2

> <Original_SMILES>
Cc1cccc(C(C)c2ccccc2)c1C

> <preferred_name>


> <dsstox_substance_id>
DTXSID10866013

> <dsstox_compound_id>
DTXCID90814355

> <qc_level>


> <Canonical_QSARr>
CC1C=CC=C(C(C)C2C=CC=CC=2)C=1C

> <InChI_Code_QSARr>
InChI=1S/C16H18/c1-12-8-7-11-16(13(12)2)14(3)15-9-5-4-6-10-15/h4-11,14H,1-3H3

> <InChI Key_QSARr>
GNPWYHFXSMINJQ-UHFFFAOYSA-N

> <Salt_Solvent>


> <Salt_Solvent_ID>
0

> <MPID>
101510

> <Tr_1_Tst_0>
1

> <Ready_Biodeg>
0.0

$$$$
Row1476
  Mrv171c012251911052D          

  9  9  0  0  0  0            999 V2000
   -1.7531   -0.6908    0.0000 C   0  0  0  0  0  0  0  0  0  0  0  0
   -1.0386   -0.2783    0.0000 C   0  0  0  0  0  0  0  0  0  0  0  0
   -0.3241   -0.6908    0.0000 C   0  0  0  0  0  0  0  0  0  0  0  0
    0.3903   -0.2783    0.0000 C   0  0  0  0  0  0  0  0  0  0  0  0
    0.3903    0.5467    0.0000 C   0  0  0  0  0  0  0  0  0  0  0  0
   -0.3241    0.9592    0.0000 C   0  0  0  0  0  0  0  0  0  0  0  0
   -0.3241    1.7842    0.0000 C   0  0  0  0  0  0  0  0  0  0  0  0
   -1.0386    0.5467    0.0000 C   0  0  0  0  0  0  0  0  0  0  0  0
   -1.7531    0.9592    0.0000 O   0  0  0  0  0  0  0  0  0  0  0  0
  1  2  1  0  0  0  0
  3  2  2  0  0  0  0
  4  3  1  0  0  0  0
  5  4  2  0  0  0  0
  6  5  1  0  0  0  0
  6  7  1  0  0  0  0
  8  6  2  0  0  0  0
  2  8  1  0  0  0  0
  8  9  1  0  0  0  0
M  END
> <ChemID>
201912

> <CAS>
576-26-1

> <Original_SMILES>
Cc1cccc(C)c1O

> <preferred_name>
2,6-Dimethylphenol

> <dsstox_substance_id>
DTXSID9024063

> <dsstox_compound_id>
DTXCID404063

> <qc_level>


> <Canonical_QSARr>
CC1C=CC=C(C)C=1O

> <InChI_Code_QSARr>
InChI=1S/C8H10O/c1-6-4-3-5-7(2)8(6)9/h3-5,9H,1-2H3

> <InChI Key_QSARr>
NXXYKOUNUYWIHA-UHFFFAOYSA-N

> <Salt_Solvent>


> <Salt_Solvent_ID>
0

> <MPID>
101511

> <Tr_1_Tst_0>
1

> <Ready_Biodeg>
0.0

$$$$
Row1477
  Mrv171c012251911052D          

 11 11  0  0  0  0            999 V2000
   -1.6191   -1.4799    0.0000 C   0  0  0  0  0  0  0  0  0  0  0  0
   -0.9047   -1.0674    0.0000 C   0  0  0  0  0  0  0  0  0  0  0  0
   -0.1902   -1.4799    0.0000 C   0  0  0  0  0  0  0  0  0  0  0  0
    0.5243   -1.0674    0.0000 C   0  0  0  0  0  0  0  0  0  0  0  0
    0.5243   -0.2424    0.0000 C   0  0  0  0  0  0  0  0  0  0  0  0
   -0.1902    0.1701    0.0000 C   0  0  0  0  0  0  0  0  0  0  0  0
   -0.1902    0.9951    0.0000 N   0  3  0  0  0  0  0  0  0  0  0  0
   -0.9047    1.4076    0.0000 O   0  5  0  0  0  0  0  0  0  0  0  0
    0.5243    1.4076    0.0000 O   0  0  0  0  0  0  0  0  0  0  0  0
   -0.9047   -0.2424    0.0000 C   0  0  0  0  0  0  0  0  0  0  0  0
   -1.6191    0.1701    0.0000 C   0  0  0  0  0  0  0  0  0  0  0  0
  1  2  1  0  0  0  0
  3  2  2  0  0  0  0
  4  3  1  0  0  0  0
  5  4  2  0  0  0  0
  6  5  1  0  0  0  0
  6  7  1  0  0  0  0
  7  8  1  0  0  0  0
  7  9  2  0  0  0  0
 10  6  2  0  0  0  0
  2 10  1  0  0  0  0
 10 11  1  0  0  0  0
M  CHG  2   7   1   8  -1
M  END
> <ChemID>
201915

> <CAS>
83-41-0

> <Original_SMILES>
Cc1cccc(c1C)[N+]([O-])=O

> <preferred_name>
1,2-Dimethyl-3-nitrobenzene

> <dsstox_substance_id>
DTXSID7025132

> <dsstox_compound_id>
DTXCID405132

> <qc_level>


> <Canonical_QSARr>
CC1=C(C=CC=C1C)[N+]([O-])=O

> <InChI_Code_QSARr>
InChI=1S/C8H9NO2/c1-6-4-3-5-8(7(6)2)9(10)11/h3-5H,1-2H3

> <InChI Key_QSARr>
FVHAWXWFPBPFOS-UHFFFAOYSA-N

> <Salt_Solvent>


> <Salt_Solvent_ID>
0

> <MPID>
101512

> <Tr_1_Tst_0>
1

> <Ready_Biodeg>
0.0

$$$$
Row1478
  Mrv171c012251911052D          

 12 12  0  0  0  0            999 V2000
   -0.1595   -1.2056    0.0000 C   0  0  0  0  0  0  0  0  0  0  0  0
    0.5549   -0.7931    0.0000 C   0  0  0  0  0  0  0  0  0  0  0  0
    1.2694   -1.2056    0.0000 C   0  0  0  0  0  0  0  0  0  0  0  0
    1.9839   -0.7931    0.0000 C   0  0  0  0  0  0  0  0  0  0  0  0
    1.9839    0.0319    0.0000 C   0  0  0  0  0  0  0  0  0  0  0  0
    1.2694    0.4444    0.0000 C   0  0  0  0  0  0  0  0  0  0  0  0
    1.2694    1.2694    0.0000 C   0  0  0  0  0  0  0  0  0  0  0  0
    1.2694    2.0944    0.0000 C   0  0  0  0  0  0  0  0  0  0  0  0
    2.0944    1.2694    0.0000 C   0  0  0  0  0  0  0  0  0  0  0  0
    0.4444    1.2694    0.0000 C   0  0  0  0  0  0  0  0  0  0  0  0
    0.5549    0.0319    0.0000 C   0  0  0  0  0  0  0  0  0  0  0  0
   -0.1595    0.4444    0.0000 O   0  0  0  0  0  0  0  0  0  0  0  0
  1  2  1  0  0  0  0
  3  2  2  0  0  0  0
  4  3  1  0  0  0  0
  5  4  2  0  0  0  0
  6  5  1  0  0  0  0
  6  7  1  0  0  0  0
  7  8  1  0  0  0  0
  7  9  1  0  0  0  0
  7 10  1  0  0  0  0
 11  6  2  0  0  0  0
  2 11  1  0  0  0  0
 11 12  1  0  0  0  0
M  END
> <ChemID>
201916

> <CAS>
2219-82-1

> <Original_SMILES>
Cc1cccc(c1O)C(C)(C)C

> <preferred_name>
2-tert-Butyl-6-methylphenol

> <dsstox_substance_id>
DTXSID4047468

> <dsstox_compound_id>
DTXCID2027468

> <qc_level>


> <Canonical_QSARr>
CC1=CC=CC(=C1O)C(C)(C)C

> <InChI_Code_QSARr>
InChI=1S/C11H16O/c1-8-6-5-7-9(10(8)12)11(2,3)4/h5-7,12H,1-4H3

> <InChI Key_QSARr>
BKZXZGWHTRCFPX-UHFFFAOYSA-N

> <Salt_Solvent>


> <Salt_Solvent_ID>
0

> <MPID>
101513

> <Tr_1_Tst_0>
1

> <Ready_Biodeg>
0.0

$$$$
Row1479
  Mrv171c012251911052D          

 11 12  0  0  0  0            999 V2000
   -0.7245   -1.7598    0.0000 C   0  0  0  0  0  0  0  0  0  0  0  0
   -0.7245   -0.9348    0.0000 C   0  0  0  0  0  0  0  0  0  0  0  0
   -1.4390   -0.5223    0.0000 C   0  0  0  0  0  0  0  0  0  0  0  0
   -1.4390    0.3027    0.0000 C   0  0  0  0  0  0  0  0  0  0  0  0
   -0.7245    0.7152    0.0000 C   0  0  0  0  0  0  0  0  0  0  0  0
   -0.0100    0.3027    0.0000 C   0  0  0  0  0  0  0  0  0  0  0  0
    0.7044    0.7152    0.0000 C   0  0  0  0  0  0  0  0  0  0  0  0
    1.4189    0.3027    0.0000 C   0  0  0  0  0  0  0  0  0  0  0  0
    1.4189   -0.5223    0.0000 C   0  0  0  0  0  0  0  0  0  0  0  0
    0.7044   -0.9348    0.0000 C   0  0  0  0  0  0  0  0  0  0  0  0
   -0.0100   -0.5223    0.0000 C   0  0  0  0  0  0  0  0  0  0  0  0
  1  2  1  0  0  0  0
  3  2  2  0  0  0  0
  4  3  1  0  0  0  0
  5  4  2  0  0  0  0
  6  5  1  0  0  0  0
  6  7  2  0  0  0  0
  7  8  1  0  0  0  0
  8  9  2  0  0  0  0
  9 10  1  0  0  0  0
 10 11  2  0  0  0  0
  2 11  1  0  0  0  0
 11  6  1  0  0  0  0
M  END
> <ChemID>
201917

> <CAS>
90-12-0

> <Original_SMILES>
Cc1cccc2ccccc21

> <preferred_name>
1-Methylnaphthalene

> <dsstox_substance_id>
DTXSID9020877

> <dsstox_compound_id>
DTXCID30877

> <qc_level>


> <Canonical_QSARr>
CC1=CC=CC2=CC=CC=C21

> <InChI_Code_QSARr>
InChI=1S/C11H10/c1-9-5-4-7-10-6-2-3-8-11(9)10/h2-8H,1H3

> <InChI Key_QSARr>
QPUYECUOLPXSFR-UHFFFAOYSA-N

> <Salt_Solvent>


> <Salt_Solvent_ID>
0

> <MPID>
101514

> <Tr_1_Tst_0>
0

> <Ready_Biodeg>
0.0

$$$$
Row1480
  Mrv171c012251911052D          

 15 15  0  0  0  0            999 V2000
    0.7145    2.0625    0.0000 C   0  0  0  0  0  0  0  0  0  0  0  0
    0.7145    1.2375    0.0000 C   0  0  0  0  0  0  0  0  0  0  0  0
    1.4289    0.8250    0.0000 C   0  0  0  0  0  0  0  0  0  0  0  0
    1.4289   -0.0000    0.0000 C   0  0  0  0  0  0  0  0  0  0  0  0
    0.7145   -0.4125    0.0000 C   0  0  0  0  0  0  0  0  0  0  0  0
    0.0000    0.0000    0.0000 C   0  0  0  0  0  0  0  0  0  0  0  0
    0.0000    0.8250    0.0000 C   0  0  0  0  0  0  0  0  0  0  0  0
   -0.7145    1.2375    0.0000 N   0  0  0  0  0  0  0  0  0  0  0  0
   -1.4289    0.8250    0.0000 C   0  0  0  0  0  0  0  0  0  0  0  0
   -2.1434    1.2375    0.0000 C   0  0  0  0  0  0  0  0  0  0  0  0
   -0.7145    2.0625    0.0000 C   0  0  0  0  0  0  0  0  0  0  0  0
    0.0000    2.4750    0.0000 O   0  0  0  0  0  0  0  0  0  0  0  0
   -1.4289    2.4750    0.0000 C   0  0  0  0  0  0  0  0  0  0  0  0
   -1.4289    3.3000    0.0000 C   0  0  0  0  0  0  0  0  0  0  0  0
   -2.1434    3.7125    0.0000 C   0  0  0  0  0  0  0  0  0  0  0  0
  1  2  1  0  0  0  0
  2  3  2  0  0  0  0
  3  4  1  0  0  0  0
  4  5  2  0  0  0  0
  5  6  1  0  0  0  0
  6  7  2  0  0  0  0
  2  7  1  0  0  0  0
  7  8  1  0  0  0  0
  8  9  1  0  0  0  0
  9 10  1  0  0  0  0
  8 11  1  0  0  0  0
 11 12  2  0  0  0  0
 11 13  1  0  0  0  0
 13 14  2  0  0  0  0
 14 15  1  4  0  0  0
M  END
> <ChemID>
201924

> <CAS>
483-63-6

> <Original_SMILES>
Cc1ccccc1N(CC)C(=O)/C=C/C

> <preferred_name>
Crotamiton

> <dsstox_substance_id>
DTXSID6040664

> <dsstox_compound_id>
DTXCID4020664

> <qc_level>


> <Canonical_QSARr>
CC1=CC=CC=C1N(CC)C(=O)C=CC

> <InChI_Code_QSARr>
InChI=1S/C13H17NO/c1-4-8-13(15)14(5-2)12-10-7-6-9-11(12)3/h4,6-10H,5H2,1-3H3

> <InChI Key_QSARr>
DNTGGZPQPQTDQF-UHFFFAOYSA-N

> <Salt_Solvent>


> <Salt_Solvent_ID>
0

> <MPID>
101515

> <Tr_1_Tst_0>
1

> <Ready_Biodeg>
0.0

$$$$
Row1481
  Mrv171c012251911052D          

 16 18  0  0  0  0            999 V2000
    1.5367   -0.7864    0.0000 C   0  0  0  0  0  0  0  0  0  0  0  0
    0.8222   -0.3739    0.0000 C   0  0  0  0  0  0  0  0  0  0  0  0
    0.8222    0.4511    0.0000 C   0  0  0  0  0  0  0  0  0  0  0  0
    0.1078    0.8636    0.0000 C   0  0  0  0  0  0  0  0  0  0  0  0
   -0.6067    0.4511    0.0000 C   0  0  0  0  0  0  0  0  0  0  0  0
   -0.6067   -0.3739    0.0000 C   0  0  0  0  0  0  0  0  0  0  0  0
    0.1078   -0.7864    0.0000 C   0  0  0  0  0  0  0  0  0  0  0  0
    0.1078   -1.6114    0.0000 N   0  0  0  0  0  0  0  0  0  0  0  0
   -0.6067   -2.0239    0.0000 C   0  0  0  0  0  0  0  0  0  0  0  0
   -0.6067   -2.8489    0.0000 C   0  0  0  0  0  0  0  0  0  0  0  0
   -1.0192   -3.5633    0.0000 C   0  0  0  0  0  0  0  0  0  0  0  0
   -0.1942   -3.5633    0.0000 O   0  0  0  0  0  0  0  0  0  0  0  0
    0.8222   -2.0239    0.0000 C   0  0  0  0  0  0  0  0  0  0  0  0
    0.8222   -2.8489    0.0000 C   0  0  0  0  0  0  0  0  0  0  0  0
    0.4097   -3.5633    0.0000 C   0  0  0  0  0  0  0  0  0  0  0  0
    1.2347   -3.5633    0.0000 O   0  0  0  0  0  0  0  0  0  0  0  0
  1  2  1  0  0  0  0
  3  2  2  0  0  0  0
  4  3  1  0  0  0  0
  5  4  2  0  0  0  0
  6  5  1  0  0  0  0
  7  6  2  0  0  0  0
  2  7  1  0  0  0  0
  7  8  1  0  0  0  0
  8  9  1  0  0  0  0
  9 10  1  0  0  0  0
 11 10  1  0  0  0  0
 12 11  1  0  0  0  0
 10 12  1  0  0  0  0
  8 13  1  0  0  0  0
 13 14  1  0  0  0  0
 15 14  1  0  0  0  0
 16 15  1  0  0  0  0
 14 16  1  0  0  0  0
M  END
> <ChemID>
201925

> <CAS>
40027-50-7

> <Original_SMILES>
Cc1ccccc1N(CC1CO1)CC1CO1

> <preferred_name>


> <dsstox_substance_id>


> <dsstox_compound_id>


> <qc_level>


> <Canonical_QSARr>
CC1=CC=CC=C1N(CC1CO1)CC1CO1

> <InChI_Code_QSARr>
InChI=1S/C13H17NO2/c1-10-4-2-3-5-13(10)14(6-11-8-15-11)7-12-9-16-12/h2-5,11-12H,6-9H2,1H3

> <InChI Key_QSARr>
OVEUFHOBGCSKSH-UHFFFAOYSA-N

> <Salt_Solvent>


> <Salt_Solvent_ID>
0

> <MPID>
101516

> <Tr_1_Tst_0>
0

> <Ready_Biodeg>
0.0

$$$$
Row1482
  Mrv171c012251911052D          

 18 19  0  0  0  0            999 V2000
   -1.6257   -1.2471    0.0000 C   0  0  0  0  0  0  0  0  0  0  0  0
   -0.9112   -1.6596    0.0000 C   0  0  0  0  0  0  0  0  0  0  0  0
   -0.9112   -2.4846    0.0000 C   0  0  0  0  0  0  0  0  0  0  0  0
   -0.1967   -2.8971    0.0000 C   0  0  0  0  0  0  0  0  0  0  0  0
    0.5177   -2.4846    0.0000 C   0  0  0  0  0  0  0  0  0  0  0  0
    0.5177   -1.6596    0.0000 C   0  0  0  0  0  0  0  0  0  0  0  0
   -0.1967   -1.2471    0.0000 C   0  0  0  0  0  0  0  0  0  0  0  0
   -0.1967   -0.4221    0.0000 N   0  0  0  0  0  0  0  0  0  0  0  0
   -0.9112   -0.0096    0.0000 C   0  0  0  0  0  0  0  0  0  0  0  0
   -1.6257   -0.4221    0.0000 N   0  0  0  0  0  0  0  0  0  0  0  0
   -0.9112    0.8154    0.0000 N   0  0  0  0  0  0  0  0  0  0  0  0
   -1.6257    1.2279    0.0000 C   0  0  0  0  0  0  0  0  0  0  0  0
   -1.6257    2.0529    0.0000 C   0  0  0  0  0  0  0  0  0  0  0  0
   -2.3402    2.4654    0.0000 C   0  0  0  0  0  0  0  0  0  0  0  0
   -3.0546    2.0529    0.0000 C   0  0  0  0  0  0  0  0  0  0  0  0
   -3.0546    1.2279    0.0000 C   0  0  0  0  0  0  0  0  0  0  0  0
   -2.3402    0.8154    0.0000 C   0  0  0  0  0  0  0  0  0  0  0  0
   -2.3402   -0.0096    0.0000 C   0  0  0  0  0  0  0  0  0  0  0  0
  1  2  1  0  0  0  0
  3  2  2  0  0  0  0
  4  3  1  0  0  0  0
  5  4  2  0  0  0  0
  6  5  1  0  0  0  0
  7  6  2  0  0  0  0
  2  7  1  0  0  0  0
  7  8  1  0  0  0  0
  8  9  1  0  0  0  0
  9 10  1  0  0  0  0
  9 11  2  0  0  0  0
 11 12  1  0  0  0  0
 13 12  2  0  0  0  0
 14 13  1  0  0  0  0
 15 14  2  0  0  0  0
 16 15  1  0  0  0  0
 17 16  2  0  0  0  0
 12 17  1  0  0  0  0
 17 18  1  0  0  0  0
M  END
> <ChemID>
201927

> <CAS>
97-39-2

> <Original_SMILES>
Cc1ccccc1N/C(/N)=N/c1ccccc1C

> <preferred_name>
1,3-Bis(2-methylphenyl)guanidine

> <dsstox_substance_id>
DTXSID2026606

> <dsstox_compound_id>
DTXCID206606

> <qc_level>


> <Canonical_QSARr>
CC1=CC=CC=C1N/C(/N)=N/C1=CC=CC=C1C

> <InChI_Code_QSARr>
InChI=1S/C15H17N3/c1-11-7-3-5-9-13(11)17-15(16)18-14-10-6-4-8-12(14)2/h3-10H,1-2H3,(H3,16,17,18)

> <InChI Key_QSARr>
OPNUROKCUBTKLF-UHFFFAOYSA-N

> <Salt_Solvent>


> <Salt_Solvent_ID>
0

> <MPID>
101517

> <Tr_1_Tst_0>
1

> <Ready_Biodeg>
0.0

$$$$
Row1483
  Mrv171c012251911052D          

 10  9  0  0  0  0            999 V2000
   -0.3028   -1.0636    0.0000 Cl  0  0  0  0  0  0  0  0  0  0  0  0
    0.5222   -1.0636    0.0000 C   0  0  0  0  0  0  0  0  0  0  0  0
    0.9347   -1.7781    0.0000 Cl  0  0  0  0  0  0  0  0  0  0  0  0
    0.9347   -0.3491    0.0000 C   0  0  0  0  0  0  0  0  0  0  0  0
    1.7597   -0.3491    0.0000 Cl  0  0  0  0  0  0  0  0  0  0  0  0
    0.5222    0.3653    0.0000 C   0  0  0  0  0  0  0  0  0  0  0  0
    0.9347    1.0798    0.0000 Cl  0  0  0  0  0  0  0  0  0  0  0  0
   -0.3028    0.3653    0.0000 C   0  0  0  0  0  0  0  0  0  0  0  0
   -0.7153   -0.3491    0.0000 Cl  0  0  0  0  0  0  0  0  0  0  0  0
   -0.7153    1.0798    0.0000 Cl  0  0  0  0  0  0  0  0  0  0  0  0
  1  2  1  0  0  0  0
  2  3  1  0  0  0  0
  2  4  2  0  0  0  0
  4  5  1  0  0  0  0
  4  6  1  0  0  0  0
  6  7  1  0  0  0  0
  6  8  2  0  0  0  0
  8  9  1  0  0  0  0
  8 10  1  0  0  0  0
M  END
> <ChemID>
201936

> <CAS>
87-68-3

> <Original_SMILES>
ClC(Cl)=C(Cl)C(Cl)=C(Cl)Cl

> <preferred_name>
Hexachloro-1,3-butadiene

> <dsstox_substance_id>
DTXSID7020683

> <dsstox_compound_id>
DTXCID10683

> <qc_level>


> <Canonical_QSARr>
ClC(Cl)=C(Cl)C(Cl)=C(Cl)Cl

> <InChI_Code_QSARr>
InChI=1S/C4Cl6/c5-1(3(7)8)2(6)4(9)10

> <InChI Key_QSARr>
RWNKSTSCBHKHTB-UHFFFAOYSA-N

> <Salt_Solvent>


> <Salt_Solvent_ID>
0

> <MPID>
101518

> <Tr_1_Tst_0>
1

> <Ready_Biodeg>
0.0

$$$$
Row1484
  Mrv171c012251911052D          

  5  4  0  0  0  0            999 V2000
    1.0725   -0.7145    0.0000 Cl  0  0  0  0  0  0  0  0  0  0  0  0
    0.6600   -0.0000    0.0000 C   0  0  0  0  0  0  0  0  0  0  0  0
   -0.1650   -0.0000    0.0000 C   0  0  0  0  0  0  0  0  0  0  0  0
   -0.5775    0.7145    0.0000 C   0  0  0  0  0  0  0  0  0  0  0  0
   -1.4025    0.7145    0.0000 Br  0  0  0  0  0  0  0  0  0  0  0  0
  1  2  1  0  0  0  0
  2  3  1  0  0  0  0
  3  4  1  0  0  0  0
  4  5  1  0  0  0  0
M  END
> <ChemID>
201952

> <CAS>
109-70-6

> <Original_SMILES>
ClCCCBr

> <preferred_name>
1-Bromo-3-chloropropane

> <dsstox_substance_id>
DTXSID1051565

> <dsstox_compound_id>
DTXCID5030117

> <qc_level>


> <Canonical_QSARr>
ClCCCBr

> <InChI_Code_QSARr>
InChI=1S/C3H6BrCl/c4-2-1-3-5/h1-3H2

> <InChI Key_QSARr>
MFESCIUQSIBMSM-UHFFFAOYSA-N

> <Salt_Solvent>


> <Salt_Solvent_ID>
0

> <MPID>
101519

> <Tr_1_Tst_0>
1

> <Ready_Biodeg>
0.0

$$$$
Row1485
  Mrv171c012251911052D          

 10  9  0  0  0  0            999 V2000
   -2.7614   -0.1348    0.0000 Cl  0  0  0  0  0  0  0  0  0  0  0  0
   -2.0469    0.2777    0.0000 C   0  0  0  0  0  0  0  0  0  0  0  0
   -1.3324   -0.1348    0.0000 C   0  0  0  0  0  0  0  0  0  0  0  0
   -0.6180    0.2777    0.0000 C   0  0  0  0  0  0  0  0  0  0  0  0
    0.0965   -0.1348    0.0000 C   0  0  0  0  0  0  0  0  0  0  0  0
    0.8110    0.2777    0.0000 C   0  0  0  0  0  0  0  0  0  0  0  0
    1.5255   -0.1348    0.0000 C   0  0  0  0  0  0  0  0  0  0  0  0
    2.2399    0.2777    0.0000 C   0  0  0  0  0  0  0  0  0  0  0  0
    2.9544   -0.1348    0.0000 C   0  0  0  0  0  0  0  0  0  0  0  0
    3.6689    0.2777    0.0000 Cl  0  0  0  0  0  0  0  0  0  0  0  0
  1  2  1  0  0  0  0
  2  3  1  0  0  0  0
  3  4  1  0  0  0  0
  4  5  1  0  0  0  0
  5  6  1  0  0  0  0
  6  7  1  0  0  0  0
  7  8  1  0  0  0  0
  8  9  1  0  0  0  0
  9 10  1  0  0  0  0
M  END
> <ChemID>
201953

> <CAS>
2162-99-4

> <Original_SMILES>
ClCCCCCCCCCl

> <preferred_name>
Octane, 1,8-dichloro-

> <dsstox_substance_id>
DTXSID4062226

> <dsstox_compound_id>
DTXCID3036521

> <qc_level>


> <Canonical_QSARr>
ClCCCCCCCCCl

> <InChI_Code_QSARr>
InChI=1S/C8H16Cl2/c9-7-5-3-1-2-4-6-8-10/h1-8H2

> <InChI Key_QSARr>
WXYMNDFVLNUAIA-UHFFFAOYSA-N

> <Salt_Solvent>


> <Salt_Solvent_ID>
0

> <MPID>
101520

> <Tr_1_Tst_0>
0

> <Ready_Biodeg>
0.0

$$$$
Row1486
  Mrv171c012251911052D          

  6  5  0  0  0  0            999 V2000
   -1.3049   -0.0872    0.0000 Cl  0  0  0  0  0  0  0  0  0  0  0  0
   -0.5905    0.3253    0.0000 C   0  0  0  0  0  0  0  0  0  0  0  0
    0.1240   -0.0872    0.0000 C   0  0  0  0  0  0  0  0  0  0  0  0
    0.8385    0.3253    0.0000 C   0  0  0  0  0  0  0  0  0  0  0  0
    1.5529   -0.0872    0.0000 C   0  0  0  0  0  0  0  0  0  0  0  0
    2.2674    0.3253    0.0000 Cl  0  0  0  0  0  0  0  0  0  0  0  0
  1  2  1  0  0  0  0
  2  3  1  0  0  0  0
  3  4  1  0  0  0  0
  4  5  1  0  0  0  0
  5  6  1  0  0  0  0
M  END
> <ChemID>
201954

> <CAS>
110-56-5

> <Original_SMILES>
ClCCCCCl

> <preferred_name>
1,4-Dichlorobutane

> <dsstox_substance_id>
DTXSID5021918

> <dsstox_compound_id>
DTXCID401918

> <qc_level>


> <Canonical_QSARr>
ClCCCCCl

> <InChI_Code_QSARr>
InChI=1S/C4H8Cl2/c5-3-1-2-4-6/h1-4H2

> <InChI Key_QSARr>
KJDRSWPQXHESDQ-UHFFFAOYSA-N

> <Salt_Solvent>


> <Salt_Solvent_ID>
0

> <MPID>
101521

> <Tr_1_Tst_0>
1

> <Ready_Biodeg>
0.0

$$$$
Row1487
  Mrv171c012251911052D          

 17 18  0  0  0  0            999 V2000
   -2.8921    0.2263    0.0000 Cl  0  0  0  0  0  0  0  0  0  0  0  0
   -2.1776    0.6388    0.0000 C   0  0  0  0  0  0  0  0  0  0  0  0
   -1.4631    0.2263    0.0000 C   0  0  0  0  0  0  0  0  0  0  0  0
   -0.7487    0.6388    0.0000 O   0  0  0  0  0  0  0  0  0  0  0  0
   -0.0342    0.2263    0.0000 C   0  0  0  0  0  0  0  0  0  0  0  0
    0.6803    0.6388    0.0000 C   0  0  0  0  0  0  0  0  0  0  0  0
    1.3947    0.2263    0.0000 C   0  0  0  0  0  0  0  0  0  0  0  0
    2.1092    0.6388    0.0000 C   0  0  0  0  0  0  0  0  0  0  0  0
    2.1092    1.4638    0.0000 C   0  0  0  0  0  0  0  0  0  0  0  0
    1.3947    1.8763    0.0000 C   0  0  0  0  0  0  0  0  0  0  0  0
    0.6803    1.4638    0.0000 C   0  0  0  0  0  0  0  0  0  0  0  0
   -0.0342   -0.5987    0.0000 C   0  0  0  0  0  0  0  0  0  0  0  0
   -0.7487   -1.0112    0.0000 C   0  0  0  0  0  0  0  0  0  0  0  0
   -0.7487   -1.8362    0.0000 C   0  0  0  0  0  0  0  0  0  0  0  0
   -0.0342   -2.2487    0.0000 C   0  0  0  0  0  0  0  0  0  0  0  0
    0.6803   -1.8362    0.0000 C   0  0  0  0  0  0  0  0  0  0  0  0
    0.6803   -1.0112    0.0000 C   0  0  0  0  0  0  0  0  0  0  0  0
  1  2  1  0  0  0  0
  2  3  1  0  0  0  0
  3  4  1  0  0  0  0
  4  5  1  0  0  0  0
  5  6  1  0  0  0  0
  7  6  2  0  0  0  0
  8  7  1  0  0  0  0
  9  8  2  0  0  0  0
 10  9  1  0  0  0  0
 11 10  2  0  0  0  0
  6 11  1  0  0  0  0
  5 12  1  0  0  0  0
 13 12  2  0  0  0  0
 14 13  1  0  0  0  0
 15 14  2  0  0  0  0
 16 15  1  0  0  0  0
 17 16  2  0  0  0  0
 12 17  1  0  0  0  0
M  END
> <ChemID>
201956

> <CAS>
32669-06-0

> <Original_SMILES>
ClCCOC(c1ccccc1)c1ccccc1

> <preferred_name>
Benzhydryl 2-chloroethyl ether

> <dsstox_substance_id>
DTXSID30186341

> <dsstox_compound_id>
DTXCID40108832

> <qc_level>


> <Canonical_QSARr>
ClCCOC(C1C=CC=CC=1)C1C=CC=CC=1

> <InChI_Code_QSARr>
InChI=1S/C15H15ClO/c16-11-12-17-15(13-7-3-1-4-8-13)14-9-5-2-6-10-14/h1-10,15H,11-12H2

> <InChI Key_QSARr>
ZNVASENTCOLNJT-UHFFFAOYSA-N

> <Salt_Solvent>


> <Salt_Solvent_ID>
0

> <MPID>
101522

> <Tr_1_Tst_0>
1

> <Ready_Biodeg>
0.0

$$$$
Row1488
  Mrv171c012251911052D          

 10  9  0  0  0  0            999 V2000
   -2.7864    0.0413    0.0000 Cl  0  0  0  0  0  0  0  0  0  0  0  0
   -2.0719    0.4538    0.0000 C   0  0  0  0  0  0  0  0  0  0  0  0
   -1.3575    0.0413    0.0000 C   0  0  0  0  0  0  0  0  0  0  0  0
   -0.6430    0.4538    0.0000 O   0  0  0  0  0  0  0  0  0  0  0  0
    0.0715    0.0413    0.0000 C   0  0  0  0  0  0  0  0  0  0  0  0
    0.7859    0.4538    0.0000 C   0  0  0  0  0  0  0  0  0  0  0  0
    1.5004    0.0413    0.0000 O   0  0  0  0  0  0  0  0  0  0  0  0
    2.2149    0.4538    0.0000 C   0  0  0  0  0  0  0  0  0  0  0  0
    2.9294    0.0413    0.0000 C   0  0  0  0  0  0  0  0  0  0  0  0
    3.6438    0.4538    0.0000 Cl  0  0  0  0  0  0  0  0  0  0  0  0
  1  2  1  0  0  0  0
  2  3  1  0  0  0  0
  3  4  1  0  0  0  0
  4  5  1  0  0  0  0
  5  6  1  0  0  0  0
  6  7  1  0  0  0  0
  7  8  1  0  0  0  0
  8  9  1  0  0  0  0
  9 10  1  0  0  0  0
M  END
> <ChemID>
201958

> <CAS>
112-26-5

> <Original_SMILES>
ClCCOCCOCCCl

> <preferred_name>
1,2-Bis(2-chloroethoxy)ethane

> <dsstox_substance_id>
DTXSID8047000

> <dsstox_compound_id>
DTXCID6027000

> <qc_level>


> <Canonical_QSARr>
ClCCOCCOCCCl

> <InChI_Code_QSARr>
InChI=1S/C6H12Cl2O2/c7-1-3-9-5-6-10-4-2-8/h1-6H2

> <InChI Key_QSARr>
AGYUOJIYYGGHKV-UHFFFAOYSA-N

> <Salt_Solvent>


> <Salt_Solvent_ID>
0

> <MPID>
101523

> <Tr_1_Tst_0>
1

> <Ready_Biodeg>
0.0

$$$$
Row1489
  Mrv171c012251911052D          

  9  9  0  0  0  0            999 V2000
   -0.3151    2.0748    0.0000 Cl  0  0  0  0  0  0  0  0  0  0  0  0
   -0.3151    1.2498    0.0000 C   0  0  0  0  0  0  0  0  0  0  0  0
   -1.0296    0.8373    0.0000 C   0  0  0  0  0  0  0  0  0  0  0  0
   -1.0296    0.0123    0.0000 C   0  0  0  0  0  0  0  0  0  0  0  0
   -1.7441   -0.4002    0.0000 C   0  0  0  0  0  0  0  0  0  0  0  0
   -1.7441   -1.2252    0.0000 C   0  0  0  0  0  0  0  0  0  0  0  0
   -1.0296   -1.6377    0.0000 C   0  0  0  0  0  0  0  0  0  0  0  0
   -0.3151   -1.2252    0.0000 C   0  0  0  0  0  0  0  0  0  0  0  0
   -0.3151   -0.4002    0.0000 C   0  0  0  0  0  0  0  0  0  0  0  0
  1  2  1  0  0  0  0
  2  3  1  0  0  0  0
  3  4  1  0  0  0  0
  5  4  2  0  0  0  0
  6  5  1  0  0  0  0
  7  6  2  0  0  0  0
  8  7  1  0  0  0  0
  9  8  2  0  0  0  0
  4  9  1  0  0  0  0
M  END
> <ChemID>
201959

> <CAS>
622-24-2

> <Original_SMILES>
ClCCc1ccccc1

> <preferred_name>
Benzene, (2-chloroethyl)-

> <dsstox_substance_id>
DTXSID3060748

> <dsstox_compound_id>
DTXCID0043260

> <qc_level>


> <Canonical_QSARr>
ClCCC1C=CC=CC=1

> <InChI_Code_QSARr>
InChI=1S/C8H9Cl/c9-7-6-8-4-2-1-3-5-8/h1-5H,6-7H2

> <InChI Key_QSARr>
MNNZINNZIQVULG-UHFFFAOYSA-N

> <Salt_Solvent>


> <Salt_Solvent_ID>
0

> <MPID>
101524

> <Tr_1_Tst_0>
1

> <Ready_Biodeg>
0.0

$$$$
Row1490
  Mrv171c012251911052D          

 15 16  0  0  0  0            999 V2000
    0.8250   -0.0000    0.0000 Cl  0  0  0  0  0  0  0  0  0  0  0  0
    0.0000    0.0000    0.0000 Si  0  0  0  0  0  0  0  0  0  0  0  0
   -0.8250    0.0000    0.0000 Cl  0  0  0  0  0  0  0  0  0  0  0  0
    0.0000   -0.8250    0.0000 C   0  0  0  0  0  0  0  0  0  0  0  0
   -0.7145   -1.2375    0.0000 C   0  0  0  0  0  0  0  0  0  0  0  0
   -0.7145   -2.0625    0.0000 C   0  0  0  0  0  0  0  0  0  0  0  0
    0.0000   -2.4750    0.0000 C   0  0  0  0  0  0  0  0  0  0  0  0
    0.7145   -2.0625    0.0000 C   0  0  0  0  0  0  0  0  0  0  0  0
    0.7145   -1.2375    0.0000 C   0  0  0  0  0  0  0  0  0  0  0  0
    0.0000    0.8250    0.0000 C   0  0  0  0  0  0  0  0  0  0  0  0
    0.7145    1.2375    0.0000 C   0  0  0  0  0  0  0  0  0  0  0  0
    0.7145    2.0625    0.0000 C   0  0  0  0  0  0  0  0  0  0  0  0
    0.0000    2.4750    0.0000 C   0  0  0  0  0  0  0  0  0  0  0  0
   -0.7145    2.0625    0.0000 C   0  0  0  0  0  0  0  0  0  0  0  0
   -0.7145    1.2375    0.0000 C   0  0  0  0  0  0  0  0  0  0  0  0
  1  2  1  0  0  0  0
  2  3  1  0  0  0  0
  2  4  1  0  0  0  0
  5  4  2  0  0  0  0
  6  5  1  0  0  0  0
  7  6  2  0  0  0  0
  8  7  1  0  0  0  0
  9  8  2  0  0  0  0
  4  9  1  0  0  0  0
  2 10  1  0  0  0  0
 11 10  2  0  0  0  0
 12 11  1  0  0  0  0
 13 12  2  0  0  0  0
 14 13  1  0  0  0  0
 15 14  2  0  0  0  0
 10 15  1  0  0  0  0
M  END
> <ChemID>
201964

> <CAS>
80-10-4

> <Original_SMILES>
Cl[Si](Cl)(c1ccccc1)c1ccccc1

> <preferred_name>
Dichlorodiphenylsilane

> <dsstox_substance_id>
DTXSID2026494

> <dsstox_compound_id>
DTXCID706494

> <qc_level>


> <Canonical_QSARr>
Cl[Si](Cl)(C1C=CC=CC=1)C1C=CC=CC=1

> <InChI_Code_QSARr>
InChI=1S/C12H10Cl2Si/c13-15(14,11-7-3-1-4-8-11)12-9-5-2-6-10-12/h1-10H

> <InChI Key_QSARr>
OSXYHAQZDCICNX-UHFFFAOYSA-N

> <Salt_Solvent>


> <Salt_Solvent_ID>
0

> <MPID>
101525

> <Tr_1_Tst_0>
1

> <Ready_Biodeg>
0.0

$$$$
Row1491
  Mrv171c012251911052D          

 22 23  0  0  0  0            999 V2000
    2.0881    1.4437    0.0000 Cl  0  0  0  0  0  0  0  0  0  0  0  0
    1.3737    1.0312    0.0000 C   0  0  0  0  0  0  0  0  0  0  0  0
    0.6592    1.4438    0.0000 C   0  0  0  0  0  0  0  0  0  0  0  0
    0.6592    2.2688    0.0000 Cl  0  0  0  0  0  0  0  0  0  0  0  0
   -0.0553    1.0313    0.0000 C   0  0  0  0  0  0  0  0  0  0  0  0
   -0.7697    1.4438    0.0000 Cl  0  0  0  0  0  0  0  0  0  0  0  0
   -0.0553    0.2063    0.0000 C   0  0  0  0  0  0  0  0  0  0  0  0
   -0.7697   -0.2062    0.0000 C   0  0  0  0  0  0  0  0  0  0  0  0
   -1.4842    0.2063    0.0000 C   0  0  0  0  0  0  0  0  0  0  0  0
   -1.4842    1.0313    0.0000 Cl  0  0  0  0  0  0  0  0  0  0  0  0
   -2.1987   -0.2062    0.0000 C   0  0  0  0  0  0  0  0  0  0  0  0
   -2.9132    0.2062    0.0000 Cl  0  0  0  0  0  0  0  0  0  0  0  0
   -2.1987   -1.0312    0.0000 C   0  0  0  0  0  0  0  0  0  0  0  0
   -2.9132   -1.4437    0.0000 Cl  0  0  0  0  0  0  0  0  0  0  0  0
   -1.4842   -1.4437    0.0000 C   0  0  0  0  0  0  0  0  0  0  0  0
   -1.4842   -2.2687    0.0000 Cl  0  0  0  0  0  0  0  0  0  0  0  0
   -0.7697   -1.0312    0.0000 C   0  0  0  0  0  0  0  0  0  0  0  0
   -0.0553   -1.4437    0.0000 Cl  0  0  0  0  0  0  0  0  0  0  0  0
    0.6592   -0.2063    0.0000 C   0  0  0  0  0  0  0  0  0  0  0  0
    0.6592   -1.0313    0.0000 Cl  0  0  0  0  0  0  0  0  0  0  0  0
    1.3737    0.2062    0.0000 C   0  0  0  0  0  0  0  0  0  0  0  0
    2.0881   -0.2063    0.0000 Cl  0  0  0  0  0  0  0  0  0  0  0  0
  1  2  1  0  0  0  0
  3  2  2  0  0  0  0
  3  4  1  0  0  0  0
  5  3  1  0  0  0  0
  5  6  1  0  0  0  0
  7  5  2  0  0  0  0
  7  8  1  0  0  0  0
  9  8  2  0  0  0  0
  9 10  1  0  0  0  0
 11  9  1  0  0  0  0
 11 12  1  0  0  0  0
 13 11  2  0  0  0  0
 13 14  1  0  0  0  0
 15 13  1  0  0  0  0
 15 16  1  0  0  0  0
 17 15  2  0  0  0  0
  8 17  1  0  0  0  0
 17 18  1  0  0  0  0
 19  7  1  0  0  0  0
 19 20  1  0  0  0  0
 21 19  2  0  0  0  0
  2 21  1  0  0  0  0
 21 22  1  0  0  0  0
M  END
> <ChemID>
201966

> <CAS>
2051-24-3

> <Original_SMILES>
Clc1c(-c2c(Cl)c(Cl)c(Cl)c(Cl)c2Cl)c(Cl)c(Cl)c(Cl)c1Cl

> <preferred_name>
Decachlorobiphenyl

> <dsstox_substance_id>
DTXSID4047541

> <dsstox_compound_id>
DTXCID2027541

> <qc_level>


> <Canonical_QSARr>
ClC1C(C2=C(Cl)C(Cl)=C(Cl)C(Cl)=C2Cl)=C(Cl)C(Cl)=C(Cl)C=1Cl

> <InChI_Code_QSARr>
InChI=1S/C12Cl10/c13-3-1(4(14)8(18)11(21)7(3)17)2-5(15)9(19)12(22)10(20)6(2)16

> <InChI Key_QSARr>
ONXPZLFXDMAPRO-UHFFFAOYSA-N

> <Salt_Solvent>


> <Salt_Solvent_ID>
0

> <MPID>
101526

> <Tr_1_Tst_0>
1

> <Ready_Biodeg>
0.0

$$$$
Row1492
  Mrv171c012251911052D          

  8  8  0  0  0  0            999 V2000
    0.4125   -2.3645    0.0000 Cl  0  0  0  0  0  0  0  0  0  0  0  0
    0.4125   -1.5395    0.0000 C   0  0  0  0  0  0  0  0  0  0  0  0
    1.1270   -1.1270    0.0000 C   0  0  0  0  0  0  0  0  0  0  0  0
    1.1270   -0.3020    0.0000 C   0  0  0  0  0  0  0  0  0  0  0  0
    0.4125    0.1105    0.0000 C   0  0  0  0  0  0  0  0  0  0  0  0
    0.4125    0.9355    0.0000 Cl  0  0  0  0  0  0  0  0  0  0  0  0
   -0.3020   -0.3020    0.0000 C   0  0  0  0  0  0  0  0  0  0  0  0
   -0.3020   -1.1270    0.0000 C   0  0  0  0  0  0  0  0  0  0  0  0
  1  2  1  0  0  0  0
  3  2  2  0  0  0  0
  4  3  1  0  0  0  0
  5  4  2  0  0  0  0
  5  6  1  0  0  0  0
  7  5  1  0  0  0  0
  8  7  2  0  0  0  0
  2  8  1  0  0  0  0
M  END
> <ChemID>
201973

> <CAS>
106-46-7

> <Original_SMILES>
Clc1ccc(Cl)cc1

> <preferred_name>
1,4-Dichlorobenzene

> <dsstox_substance_id>
DTXSID1020431

> <dsstox_compound_id>
DTXCID30431

> <qc_level>


> <Canonical_QSARr>
ClC1C=CC(Cl)=CC=1

> <InChI_Code_QSARr>
InChI=1S/C6H4Cl2/c7-5-1-2-6(8)4-3-5/h1-4H

> <InChI Key_QSARr>
OCJBOOLMMGQPQU-UHFFFAOYSA-N

> <Salt_Solvent>


> <Salt_Solvent_ID>
0

> <MPID>
101527

> <Tr_1_Tst_0>
0

> <Ready_Biodeg>
0.0

$$$$
Row1493
  Mrv171c012251911052D          

 14 14  0  0  0  0            999 V2000
   -4.0827   -1.1196    0.0000 Cl  0  0  0  0  0  0  0  0  0  0  0  0
   -3.3682   -0.7071    0.0000 C   0  0  0  0  0  0  0  0  0  0  0  0
   -2.6538   -1.1196    0.0000 C   0  0  0  0  0  0  0  0  0  0  0  0
   -1.9393   -0.7071    0.0000 C   0  0  0  0  0  0  0  0  0  0  0  0
   -1.9393    0.1179    0.0000 C   0  0  0  0  0  0  0  0  0  0  0  0
   -1.2248    0.5304    0.0000 O   0  0  0  0  0  0  0  0  0  0  0  0
   -0.5103    0.1179    0.0000 C   0  0  0  0  0  0  0  0  0  0  0  0
    0.2041    0.5304    0.0000 O   0  0  0  0  0  0  0  0  0  0  0  0
    0.9186    0.1179    0.0000 C   0  0  0  0  0  0  0  0  0  0  0  0
    1.6331    0.5304    0.0000 C   0  0  0  0  0  0  0  0  0  0  0  0
    2.3475    0.9429    0.0000 C   0  0  0  0  0  0  0  0  0  0  0  0
    3.0620    1.3554    0.0000 I   0  0  0  0  0  0  0  0  0  0  0  0
   -2.6538    0.5304    0.0000 C   0  0  0  0  0  0  0  0  0  0  0  0
   -3.3682    0.1179    0.0000 C   0  0  0  0  0  0  0  0  0  0  0  0
  1  2  1  0  0  0  0
  3  2  2  0  0  0  0
  4  3  1  0  0  0  0
  5  4  2  0  0  0  0
  5  6  1  0  0  0  0
  6  7  1  0  0  0  0
  7  8  1  0  0  0  0
  8  9  1  0  0  0  0
  9 10  1  0  0  0  0
 10 11  3  0  0  0  0
 11 12  1  0  0  0  0
 13  5  1  0  0  0  0
 14 13  2  0  0  0  0
  2 14  1  0  0  0  0
M  END
> <ChemID>
201975

> <CAS>
29772-02-9

> <Original_SMILES>
Clc1ccc(cc1)OCOCC#CI

> <preferred_name>
1-Chloro-4-(((3-iodo-2-propynyl)oxy)methoxy)benzene

> <dsstox_substance_id>
DTXSID90183917

> <dsstox_compound_id>
DTXCID30106408

> <qc_level>


> <Canonical_QSARr>
ClC1=CC=C(C=C1)OCOCC#CI

> <InChI_Code_QSARr>
InChI=1S/C10H8ClIO2/c11-9-2-4-10(5-3-9)14-8-13-7-1-6-12/h2-5H,7-8H2

> <InChI Key_QSARr>
KQLBUIOMHNFZMD-UHFFFAOYSA-N

> <Salt_Solvent>


> <Salt_Solvent_ID>
0

> <MPID>
101528

> <Tr_1_Tst_0>
1

> <Ready_Biodeg>
0.0

$$$$
Row1494
  Mrv171c012251911052D          

  8  8  0  0  0  0            999 V2000
   -1.2503    0.1031    0.0000 Cl  0  0  0  0  0  0  0  0  0  0  0  0
   -0.5359    0.5156    0.0000 C   0  0  0  0  0  0  0  0  0  0  0  0
    0.1786    0.1031    0.0000 C   0  0  0  0  0  0  0  0  0  0  0  0
    0.8931    0.5156    0.0000 C   0  0  0  0  0  0  0  0  0  0  0  0
    0.8931    1.3406    0.0000 C   0  0  0  0  0  0  0  0  0  0  0  0
    0.1786    1.7531    0.0000 C   0  0  0  0  0  0  0  0  0  0  0  0
    0.1786    2.5781    0.0000 Cl  0  0  0  0  0  0  0  0  0  0  0  0
   -0.5359    1.3406    0.0000 N   0  0  0  0  0  0  0  0  0  0  0  0
  1  2  1  0  0  0  0
  3  2  2  0  0  0  0
  4  3  1  0  0  0  0
  5  4  2  0  0  0  0
  6  5  1  0  0  0  0
  6  7  1  0  0  0  0
  8  6  2  0  0  0  0
  2  8  1  0  0  0  0
M  END
> <ChemID>
201976

> <CAS>
2402-78-0

> <Original_SMILES>
Clc1cccc(Cl)[n]1

> <preferred_name>
2,6-Dichloropyridine

> <dsstox_substance_id>
DTXSID2051895

> <dsstox_compound_id>
DTXCID0030457

> <qc_level>


> <Canonical_QSARr>
ClC1C=CC=C(Cl)N=1

> <InChI_Code_QSARr>
InChI=1S/C5H3Cl2N/c6-4-2-1-3-5(7)8-4/h1-3H

> <InChI Key_QSARr>
FILKGCRCWDMBKA-UHFFFAOYSA-N

> <Salt_Solvent>


> <Salt_Solvent_ID>
0

> <MPID>
101529

> <Tr_1_Tst_0>
1

> <Ready_Biodeg>
0.0

$$$$
Row1495
  Mrv171c012251911052D          

 11 12  0  0  0  0            999 V2000
   -0.5845   -0.9375    0.0000 Cl  0  0  0  0  0  0  0  0  0  0  0  0
   -0.5845   -0.1125    0.0000 C   0  0  0  0  0  0  0  0  0  0  0  0
   -1.2990    0.3000    0.0000 C   0  0  0  0  0  0  0  0  0  0  0  0
   -1.2990    1.1250    0.0000 C   0  0  0  0  0  0  0  0  0  0  0  0
   -0.5845    1.5375    0.0000 C   0  0  0  0  0  0  0  0  0  0  0  0
    0.1299    1.1250    0.0000 C   0  0  0  0  0  0  0  0  0  0  0  0
    0.8444    1.5375    0.0000 C   0  0  0  0  0  0  0  0  0  0  0  0
    1.5589    1.1250    0.0000 C   0  0  0  0  0  0  0  0  0  0  0  0
    1.5589    0.3000    0.0000 C   0  0  0  0  0  0  0  0  0  0  0  0
    0.8444   -0.1125    0.0000 C   0  0  0  0  0  0  0  0  0  0  0  0
    0.1299    0.3000    0.0000 C   0  0  0  0  0  0  0  0  0  0  0  0
  1  2  1  0  0  0  0
  3  2  2  0  0  0  0
  4  3  1  0  0  0  0
  5  4  2  0  0  0  0
  6  5  1  0  0  0  0
  6  7  2  0  0  0  0
  7  8  1  0  0  0  0
  8  9  2  0  0  0  0
  9 10  1  0  0  0  0
 10 11  2  0  0  0  0
  2 11  1  0  0  0  0
 11  6  1  0  0  0  0
M  END
> <ChemID>
201978

> <CAS>
90-13-1

> <Original_SMILES>
Clc1cccc2ccccc21

> <preferred_name>
1-Chloronaphthalene

> <dsstox_substance_id>
DTXSID2024791

> <dsstox_compound_id>
DTXCID904791

> <qc_level>


> <Canonical_QSARr>
ClC1=CC=CC2=CC=CC=C21

> <InChI_Code_QSARr>
InChI=1S/C10H7Cl/c11-10-7-3-5-8-4-1-2-6-9(8)10/h1-7H

> <InChI Key_QSARr>
JTPNRXUCIXHOKM-UHFFFAOYSA-N

> <Salt_Solvent>


> <Salt_Solvent_ID>
0

> <MPID>
101530

> <Tr_1_Tst_0>
0

> <Ready_Biodeg>
0.0

$$$$
Row1496
  Mrv171c012251911052D          

 10 11  0  0  0  0            999 V2000
    2.2667    0.1478    0.0000 Cl  0  0  0  0  0  0  0  0  0  0  0  0
    1.5522    0.5603    0.0000 C   0  0  0  0  0  0  0  0  0  0  0  0
    1.5522    1.3853    0.0000 C   0  0  0  0  0  0  0  0  0  0  0  0
    0.8377    1.7978    0.0000 C   0  0  0  0  0  0  0  0  0  0  0  0
    0.1233    1.3853    0.0000 C   0  0  0  0  0  0  0  0  0  0  0  0
    0.1233    0.5603    0.0000 C   0  0  0  0  0  0  0  0  0  0  0  0
    0.8377    0.1478    0.0000 C   0  0  0  0  0  0  0  0  0  0  0  0
    0.8377   -0.6772    0.0000 C   0  0  0  0  0  0  0  0  0  0  0  0
    0.4252   -1.3917    0.0000 C   0  0  0  0  0  0  0  0  0  0  0  0
    1.2502   -1.3917    0.0000 O   0  0  0  0  0  0  0  0  0  0  0  0
  1  2  1  0  0  0  0
  3  2  2  0  0  0  0
  4  3  1  0  0  0  0
  5  4  2  0  0  0  0
  6  5  1  0  0  0  0
  7  6  2  0  0  0  0
  2  7  1  0  0  0  0
  7  8  1  0  0  0  0
  9  8  1  0  0  0  0
 10  9  1  0  0  0  0
  8 10  1  0  0  0  0
M  END
> <ChemID>
201981

> <CAS>
62717-50-4

> <Original_SMILES>
Clc1ccccc1C1CO1

> <preferred_name>


> <dsstox_substance_id>


> <dsstox_compound_id>


> <qc_level>


> <Canonical_QSARr>
ClC1=CC=CC=C1C1CO1

> <InChI_Code_QSARr>
InChI=1S/C8H7ClO/c9-7-4-2-1-3-6(7)8-5-10-8/h1-4,8H,5H2

> <InChI Key_QSARr>
RTPJBMWUVSTBPC-UHFFFAOYSA-N

> <Salt_Solvent>


> <Salt_Solvent_ID>
0

> <MPID>
101531

> <Tr_1_Tst_0>
1

> <Ready_Biodeg>
0.0

$$$$
Row1497
  Mrv171c012251911052D          

  9  9  0  0  0  0            999 V2000
   -1.4322    1.2711    0.0000 Cl  0  0  0  0  0  0  0  0  0  0  0  0
   -1.4322    0.4461    0.0000 C   0  0  0  0  0  0  0  0  0  0  0  0
   -0.7178    0.0336    0.0000 C   0  0  0  0  0  0  0  0  0  0  0  0
   -0.7178   -0.7914    0.0000 C   0  0  0  0  0  0  0  0  0  0  0  0
   -0.0033   -1.2039    0.0000 C   0  0  0  0  0  0  0  0  0  0  0  0
    0.7112   -0.7914    0.0000 C   0  0  0  0  0  0  0  0  0  0  0  0
    0.7112    0.0336    0.0000 C   0  0  0  0  0  0  0  0  0  0  0  0
   -0.0033    0.4461    0.0000 C   0  0  0  0  0  0  0  0  0  0  0  0
   -0.0033    1.2711    0.0000 Cl  0  0  0  0  0  0  0  0  0  0  0  0
  1  2  1  0  0  0  0
  2  3  1  0  0  0  0
  4  3  2  0  0  0  0
  5  4  1  0  0  0  0
  6  5  2  0  0  0  0
  7  6  1  0  0  0  0
  8  7  2  0  0  0  0
  3  8  1  0  0  0  0
  8  9  1  0  0  0  0
M  END
> <ChemID>
201982

> <CAS>
611-19-8

> <Original_SMILES>
Clc1ccccc1CCl

> <preferred_name>
2-Chlorobenzyl chloride

> <dsstox_substance_id>
DTXSID3027241

> <dsstox_compound_id>
DTXCID707241

> <qc_level>


> <Canonical_QSARr>
ClC1=CC=CC=C1CCl

> <InChI_Code_QSARr>
InChI=1S/C7H6Cl2/c8-5-6-3-1-2-4-7(6)9/h1-4H,5H2

> <InChI Key_QSARr>
BASMANVIUSSIIM-UHFFFAOYSA-N

> <Salt_Solvent>


> <Salt_Solvent_ID>
0

> <MPID>
101532

> <Tr_1_Tst_0>
0

> <Ready_Biodeg>
0.0

$$$$
Row1498
  Mrv171c012251911052D          

  8  7  0  0  0  0            999 V2000
    0.4125   -1.2375    0.0000 F   0  0  0  0  0  0  0  0  0  0  0  0
    0.4125   -0.4125    0.0000 C   0  0  0  0  0  0  0  0  0  0  0  0
    1.2375   -0.4125    0.0000 F   0  0  0  0  0  0  0  0  0  0  0  0
   -0.4125   -0.4125    0.0000 Br  0  0  0  0  0  0  0  0  0  0  0  0
    0.4125    0.4125    0.0000 C   0  0  0  0  0  0  0  0  0  0  0  0
    0.4125    1.2375    0.0000 F   0  0  0  0  0  0  0  0  0  0  0  0
    1.2375    0.4125    0.0000 F   0  0  0  0  0  0  0  0  0  0  0  0
   -0.4125    0.4125    0.0000 Br  0  0  0  0  0  0  0  0  0  0  0  0
  1  2  1  0  0  0  0
  2  3  1  0  0  0  0
  2  4  1  0  0  0  0
  2  5  1  0  0  0  0
  5  6  1  0  0  0  0
  5  7  1  0  0  0  0
  5  8  1  0  0  0  0
M  END
> <ChemID>
201986

> <CAS>
124-73-2

> <Original_SMILES>
FC(F)(Br)C(F)(F)Br

> <preferred_name>
1,2-Dibromo-1,1,2,2-tetrafluoroethane

> <dsstox_substance_id>
DTXSID0041226

> <dsstox_compound_id>
DTXCID8021226

> <qc_level>


> <Canonical_QSARr>
FC(F)(Br)C(F)(F)Br

> <InChI_Code_QSARr>
InChI=1S/C2Br2F4/c3-1(5,6)2(4,7)8

> <InChI Key_QSARr>
KVBKAPANDHPRDG-UHFFFAOYSA-N

> <Salt_Solvent>


> <Salt_Solvent_ID>
0

> <MPID>
101533

> <Tr_1_Tst_0>
0

> <Ready_Biodeg>
0.0

$$$$
Row1499
  Mrv171c012251911052D          

  7  6  0  0  0  0            999 V2000
    0.8839    0.9186    0.0000 F   0  0  0  0  0  0  0  0  0  0  0  0
    0.4714    0.2041    0.0000 C   0  0  0  0  0  0  0  0  0  0  0  0
   -0.2430    0.6166    0.0000 F   0  0  0  0  0  0  0  0  0  0  0  0
    1.1859   -0.2084    0.0000 F   0  0  0  0  0  0  0  0  0  0  0  0
    0.0589   -0.5103    0.0000 C   0  0  0  0  0  0  0  0  0  0  0  0
    0.4714   -1.2248    0.0000 Cl  0  0  0  0  0  0  0  0  0  0  0  0
   -0.7661   -0.5103    0.0000 Cl  0  0  0  0  0  0  0  0  0  0  0  0
  1  2  1  0  0  0  0
  2  3  1  0  0  0  0
  2  4  1  0  0  0  0
  2  5  1  0  0  0  0
  5  6  1  0  0  0  0
  5  7  1  0  0  0  0
M  END
> <ChemID>
201988

> <CAS>
306-83-2

> <Original_SMILES>
FC(F)(F)C(Cl)Cl

> <preferred_name>
2,2-Dichloro-1,1,1-trifluoroethane

> <dsstox_substance_id>
DTXSID7020712

> <dsstox_compound_id>
DTXCID50712

> <qc_level>


> <Canonical_QSARr>
FC(F)(F)C(Cl)Cl

> <InChI_Code_QSARr>
InChI=1S/C2HCl2F3/c3-1(4)2(5,6)7/h1H

> <InChI Key_QSARr>
OHMHBGPWCHTMQE-UHFFFAOYSA-N

> <Salt_Solvent>


> <Salt_Solvent_ID>
0

> <MPID>
101534

> <Tr_1_Tst_0>
1

> <Ready_Biodeg>
0.0

$$$$
Row1500
  Mrv171c012251911052D          

 24 24  0  0  0  0            999 V2000
    0.6976    2.3714    0.0000 F   0  0  0  0  0  0  0  0  0  0  0  0
    0.4154    1.5962    0.0000 C   0  0  0  0  0  0  0  0  0  0  0  0
   -0.3598    1.8784    0.0000 F   0  0  0  0  0  0  0  0  0  0  0  0
    1.1906    1.3140    0.0000 F   0  0  0  0  0  0  0  0  0  0  0  0
    0.1332    0.8209    0.0000 C   0  0  0  0  0  0  0  0  0  0  0  0
    0.9457    0.6777    0.0000 F   0  0  0  0  0  0  0  0  0  0  0  0
   -0.5812    1.2334    0.0000 C   0  0  0  0  0  0  0  0  0  0  0  0
   -0.7808    2.0339    0.0000 F   0  0  0  0  0  0  0  0  0  0  0  0
   -1.1115    1.8654    0.0000 F   0  0  0  0  0  0  0  0  0  0  0  0
   -1.2957    0.8209    0.0000 C   0  0  0  0  0  0  0  0  0  0  0  0
   -1.5779    1.5962    0.0000 F   0  0  0  0  0  0  0  0  0  0  0  0
   -2.1082    0.6777    0.0000 F   0  0  0  0  0  0  0  0  0  0  0  0
   -1.2957   -0.0041    0.0000 C   0  0  0  0  0  0  0  0  0  0  0  0
   -2.1082    0.1392    0.0000 F   0  0  0  0  0  0  0  0  0  0  0  0
   -1.5779   -0.7793    0.0000 F   0  0  0  0  0  0  0  0  0  0  0  0
   -0.5812   -0.4166    0.0000 C   0  0  0  0  0  0  0  0  0  0  0  0
   -0.0509   -1.0485    0.0000 F   0  0  0  0  0  0  0  0  0  0  0  0
   -1.1115   -1.0485    0.0000 F   0  0  0  0  0  0  0  0  0  0  0  0
    0.1332   -0.0041    0.0000 C   0  0  0  0  0  0  0  0  0  0  0  0
    0.9577   -0.0328    0.0000 F   0  0  0  0  0  0  0  0  0  0  0  0
    0.5704   -0.7037    0.0000 C   0  0  0  0  0  0  0  0  0  0  0  0
    1.0076   -1.4033    0.0000 F   0  0  0  0  0  0  0  0  0  0  0  0
    1.2701   -0.2665    0.0000 F   0  0  0  0  0  0  0  0  0  0  0  0
    0.0401   -1.3357    0.0000 F   0  0  0  0  0  0  0  0  0  0  0  0
  1  2  1  0  0  0  0
  2  3  1  0  0  0  0
  2  4  1  0  0  0  0
  2  5  1  0  0  0  0
  5  6  1  0  0  0  0
  7  5  1  0  0  0  0
  7  8  1  0  0  0  0
  7  9  1  0  0  0  0
 10  7  1  0  0  0  0
 10 11  1  0  0  0  0
 10 12  1  0  0  0  0
 13 10  1  0  0  0  0
 13 14  1  0  0  0  0
 13 15  1  0  0  0  0
 16 13  1  0  0  0  0
 16 17  1  0  0  0  0
 16 18  1  0  0  0  0
 19 16  1  0  0  0  0
  5 19  1  0  0  0  0
 19 20  1  0  0  0  0
 19 21  1  0  0  0  0
 21 22  1  0  0  0  0
 21 23  1  0  0  0  0
 21 24  1  0  0  0  0
M  END
> <ChemID>
201990

> <CAS>
306-98-9

> <Original_SMILES>
FC(F)(F)C1(F)C(F)(C(F)(F)C(F)(F)C(F)(F)C1(F)F)C(F)(F)F

> <preferred_name>


> <dsstox_substance_id>
DTXSID20870500

> <dsstox_compound_id>
DTXCID50818218

> <qc_level>


> <Canonical_QSARr>
FC(F)(F)C1(F)C(F)(C(F)(F)C(F)(F)C(F)(F)C1(F)F)C(F)(F)F

> <InChI_Code_QSARr>
InChI=1S/C8F16/c9-1(7(19,20)21)2(10,8(22,23)24)4(13,14)6(17,18)5(15,16)3(1,11)12

> <InChI Key_QSARr>
GHBZJUJZNRLHBI-UHFFFAOYSA-N

> <Salt_Solvent>


> <Salt_Solvent_ID>
0

> <MPID>
101535

> <Tr_1_Tst_0>
0

> <Ready_Biodeg>
0.0

$$$$
Row1501
  Mrv171c012251911052D          

 14 14  0  0  0  0            999 V2000
   -2.3986   -1.3259    0.0000 F   0  0  0  0  0  0  0  0  0  0  0  0
   -1.6841   -0.9134    0.0000 C   0  0  0  0  0  0  0  0  0  0  0  0
   -1.2716   -1.6279    0.0000 F   0  0  0  0  0  0  0  0  0  0  0  0
   -2.0966   -0.1989    0.0000 F   0  0  0  0  0  0  0  0  0  0  0  0
   -0.9696   -0.5009    0.0000 C   0  0  0  0  0  0  0  0  0  0  0  0
   -0.2552   -0.9134    0.0000 C   0  0  0  0  0  0  0  0  0  0  0  0
    0.4593   -0.5009    0.0000 C   0  0  0  0  0  0  0  0  0  0  0  0
    0.4593    0.3241    0.0000 C   0  0  0  0  0  0  0  0  0  0  0  0
   -0.2552    0.7366    0.0000 C   0  0  0  0  0  0  0  0  0  0  0  0
   -0.2552    1.5616    0.0000 C   0  0  0  0  0  0  0  0  0  0  0  0
   -0.2552    2.3866    0.0000 F   0  0  0  0  0  0  0  0  0  0  0  0
    0.5698    1.5616    0.0000 F   0  0  0  0  0  0  0  0  0  0  0  0
   -1.0802    1.5616    0.0000 F   0  0  0  0  0  0  0  0  0  0  0  0
   -0.9696    0.3241    0.0000 C   0  0  0  0  0  0  0  0  0  0  0  0
  1  2  1  0  0  0  0
  2  3  1  0  0  0  0
  2  4  1  0  0  0  0
  2  5  1  0  0  0  0
  6  5  2  0  0  0  0
  7  6  1  0  0  0  0
  8  7  2  0  0  0  0
  9  8  1  0  0  0  0
  9 10  1  0  0  0  0
 10 11  1  0  0  0  0
 10 12  1  0  0  0  0
 10 13  1  0  0  0  0
 14  9  2  0  0  0  0
  5 14  1  0  0  0  0
M  END
> <ChemID>
201991

> <CAS>
402-31-3

> <Original_SMILES>
FC(F)(F)c1cc(ccc1)C(F)(F)F

> <preferred_name>
Benzene, 1,3-bis(trifluoromethyl)-

> <dsstox_substance_id>
DTXSID1059949

> <dsstox_compound_id>
DTXCID4039730

> <qc_level>


> <Canonical_QSARr>
FC(F)(F)C1C=C(C=CC=1)C(F)(F)F

> <InChI_Code_QSARr>
InChI=1S/C8H4F6/c9-7(10,11)5-2-1-3-6(4-5)8(12,13)14/h1-4H

> <InChI Key_QSARr>
SJBBXFLOLUTGCW-UHFFFAOYSA-N

> <Salt_Solvent>


> <Salt_Solvent_ID>
0

> <MPID>
101536

> <Tr_1_Tst_0>
1

> <Ready_Biodeg>
0.0

$$$$
Row1502
  Mrv171c012251911052D          

  8  8  0  0  0  0            999 V2000
   -1.1472   -0.0203    0.0000 F   0  0  0  0  0  0  0  0  0  0  0  0
   -0.4327   -0.4328    0.0000 C   0  0  0  0  0  0  0  0  0  0  0  0
   -0.4327   -1.2578    0.0000 C   0  0  0  0  0  0  0  0  0  0  0  0
    0.2817   -1.6703    0.0000 C   0  0  0  0  0  0  0  0  0  0  0  0
    0.9962   -1.2578    0.0000 C   0  0  0  0  0  0  0  0  0  0  0  0
    0.9962   -0.4328    0.0000 C   0  0  0  0  0  0  0  0  0  0  0  0
    0.2817   -0.0203    0.0000 C   0  0  0  0  0  0  0  0  0  0  0  0
    0.2817    0.8047    0.0000 F   0  0  0  0  0  0  0  0  0  0  0  0
  1  2  1  0  0  0  0
  3  2  2  0  0  0  0
  4  3  1  0  0  0  0
  5  4  2  0  0  0  0
  6  5  1  0  0  0  0
  7  6  2  0  0  0  0
  2  7  1  0  0  0  0
  7  8  1  0  0  0  0
M  END
> <ChemID>
201992

> <CAS>
367-11-3

> <Original_SMILES>
Fc1ccccc1F

> <preferred_name>
Benzene, 1,2-difluoro-

> <dsstox_substance_id>
DTXSID2075390

> <dsstox_compound_id>
DTXCID1039216

> <qc_level>


> <Canonical_QSARr>
FC1=CC=CC=C1F

> <InChI_Code_QSARr>
InChI=1S/C6H4F2/c7-5-3-1-2-4-6(5)8/h1-4H

> <InChI Key_QSARr>
GOYDNIKZWGIXJT-UHFFFAOYSA-N

> <Salt_Solvent>


> <Salt_Solvent_ID>
0

> <MPID>
101537

> <Tr_1_Tst_0>
1

> <Ready_Biodeg>
0.0

$$$$
Row1503
  Mrv171c012251911052D          

 20 22  0  0  0  0            999 V2000
    0.7145    2.0625    0.0000 O   0  0  0  0  0  0  0  0  0  0  0  0
    0.7145    1.2375    0.0000 C   0  0  0  0  0  0  0  0  0  0  0  0
    1.4290    0.8250    0.0000 C   0  0  0  0  0  0  0  0  0  0  0  0
    1.4290    0.0000    0.0000 C   0  0  0  0  0  0  0  0  0  0  0  0
    2.1434   -0.4125    0.0000 S   0  0  0  0  0  0  0  0  0  0  0  0
    2.8579    0.0000    0.0000 C   0  0  0  0  0  0  0  0  0  0  0  0
    2.8579    0.8250    0.0000 C   0  0  0  0  0  0  0  0  0  0  0  0
    2.1434    1.2375    0.0000 S   0  0  0  0  0  0  0  0  0  0  0  0
    3.5724    1.2375    0.0000 C   0  0  0  0  0  0  0  0  0  0  0  0
    4.2869    1.6500    0.0000 N   0  0  0  0  0  0  0  0  0  0  0  0
    3.5724   -0.4125    0.0000 C   0  0  0  0  0  0  0  0  0  0  0  0
    4.2869   -0.8250    0.0000 N   0  0  0  0  0  0  0  0  0  0  0  0
    0.7145   -0.4125    0.0000 C   0  0  0  0  0  0  0  0  0  0  0  0
    0.7145   -1.2375    0.0000 O   0  0  0  0  0  0  0  0  0  0  0  0
    0.0000    0.0000    0.0000 C   0  0  0  0  0  0  0  0  0  0  0  0
   -0.7144   -0.4125    0.0000 C   0  0  0  0  0  0  0  0  0  0  0  0
   -1.4289    0.0000    0.0000 C   0  0  0  0  0  0  0  0  0  0  0  0
   -1.4289    0.8250    0.0000 C   0  0  0  0  0  0  0  0  0  0  0  0
   -0.7144    1.2375    0.0000 C   0  0  0  0  0  0  0  0  0  0  0  0
    0.0000    0.8250    0.0000 C   0  0  0  0  0  0  0  0  0  0  0  0
  1  2  2  0  0  0  0
  3  2  1  0  0  0  0
  3  4  2  0  0  0  0
  4  5  1  0  0  0  0
  5  6  1  0  0  0  0
  6  7  2  0  0  0  0
  7  8  1  0  0  0  0
  8  3  1  0  0  0  0
  7  9  1  0  0  0  0
  9 10  3  0  0  0  0
  6 11  1  0  0  0  0
 11 12  3  0  0  0  0
 13  4  1  0  0  0  0
 13 14  2  0  0  0  0
 15 13  1  0  0  0  0
 15 16  2  0  0  0  0
 16 17  1  0  0  0  0
 17 18  2  0  0  0  0
 18 19  1  0  0  0  0
 19 20  2  0  0  0  0
  2 20  1  0  0  0  0
 20 15  1  0  0  0  0
M  END
> <ChemID>
201993

> <CAS>
3347-22-6

> <Original_SMILES>
N#CC1SC2=C(SC=1C#N)C(=O)c1ccccc1C2=O

> <preferred_name>
Dithianon

> <dsstox_substance_id>
DTXSID8040270

> <dsstox_compound_id>
DTXCID6020270

> <qc_level>


> <Canonical_QSARr>
N#CC1SC2=C(SC=1C#N)C(=O)C1=CC=CC=C1C2=O

> <InChI_Code_QSARr>
InChI=1S/C14H4N2O2S2/c15-5-9-10(6-16)20-14-12(18)8-4-2-1-3-7(8)11(17)13(14)19-9/h1-4H

> <InChI Key_QSARr>
PYZSVQVRHDXQSL-UHFFFAOYSA-N

> <Salt_Solvent>


> <Salt_Solvent_ID>
0

> <MPID>
101538

> <Tr_1_Tst_0>
1

> <Ready_Biodeg>
0.0

$$$$
Row1504
  Mrv171c012251911052D          

  6  5  0  0  0  0            999 V2000
    1.5125   -0.2382    0.0000 O   0  0  0  0  0  0  0  0  0  0  0  0
    0.6875   -0.2382    0.0000 C   0  0  0  0  0  0  0  0  0  0  0  0
    0.2750   -0.9526    0.0000 O   0  0  0  0  0  0  0  0  0  0  0  0
    0.2750    0.4763    0.0000 C   0  0  0  0  0  0  0  0  0  0  0  0
   -0.5500    0.4763    0.0000 C   0  0  0  0  0  0  0  0  0  0  0  0
   -1.3750    0.4763    0.0000 N   0  0  0  0  0  0  0  0  0  0  0  0
  1  2  1  0  0  0  0
  2  3  2  0  0  0  0
  2  4  1  0  0  0  0
  4  5  1  0  0  0  0
  5  6  3  0  0  0  0
M  END
> <ChemID>
201994

> <CAS>
372-09-8

> <Original_SMILES>
N#CCC(O)=O

> <preferred_name>
Cyanoacetic acid

> <dsstox_substance_id>
DTXSID0027149

> <dsstox_compound_id>
DTXCID707149

> <qc_level>


> <Canonical_QSARr>
N#CCC(O)=O

> <InChI_Code_QSARr>
InChI=1S/C3H3NO2/c4-2-1-3(5)6/h1H2,(H,5,6)

> <InChI Key_QSARr>
MLIREBYILWEBDM-UHFFFAOYSA-N

> <Salt_Solvent>


> <Salt_Solvent_ID>
0

> <MPID>
101539

> <Tr_1_Tst_0>
0

> <Ready_Biodeg>
1.0

$$$$
Row1505
  Mrv171c012251911052D          

 14 14  0  0  0  0            999 V2000
    1.9903    1.5027    0.0000 Cl  0  0  0  0  0  0  0  0  0  0  0  0
    1.2758    1.0902    0.0000 C   0  0  0  0  0  0  0  0  0  0  0  0
    0.5614    1.5027    0.0000 C   0  0  0  0  0  0  0  0  0  0  0  0
    0.5614    2.3277    0.0000 Cl  0  0  0  0  0  0  0  0  0  0  0  0
   -0.1531    1.0902    0.0000 C   0  0  0  0  0  0  0  0  0  0  0  0
   -0.8676    1.5027    0.0000 Cl  0  0  0  0  0  0  0  0  0  0  0  0
   -0.1531    0.2652    0.0000 C   0  0  0  0  0  0  0  0  0  0  0  0
   -0.8676   -0.1473    0.0000 C   0  0  0  0  0  0  0  0  0  0  0  0
   -1.5820   -0.5598    0.0000 N   0  0  0  0  0  0  0  0  0  0  0  0
    0.5614   -0.1473    0.0000 C   0  0  0  0  0  0  0  0  0  0  0  0
    0.5614   -0.9723    0.0000 C   0  0  0  0  0  0  0  0  0  0  0  0
    0.5614   -1.7973    0.0000 N   0  0  0  0  0  0  0  0  0  0  0  0
    1.2758    0.2652    0.0000 C   0  0  0  0  0  0  0  0  0  0  0  0
    1.9903   -0.1473    0.0000 Cl  0  0  0  0  0  0  0  0  0  0  0  0
  1  2  1  0  0  0  0
  3  2  2  0  0  0  0
  3  4  1  0  0  0  0
  5  3  1  0  0  0  0
  5  6  1  0  0  0  0
  7  5  2  0  0  0  0
  7  8  1  0  0  0  0
  8  9  3  0  0  0  0
 10  7  1  0  0  0  0
 10 11  1  0  0  0  0
 11 12  3  0  0  0  0
 13 10  2  0  0  0  0
  2 13  1  0  0  0  0
 13 14  1  0  0  0  0
M  END
> <ChemID>
202000

> <CAS>
1953-99-7

> <Original_SMILES>
N#Cc1c(C#N)c(Cl)c(Cl)c(Cl)c1Cl

> <preferred_name>
1,2-Benzenedicarbonitrile, 3,4,5,6-tetrachloro- (9CI)

> <dsstox_substance_id>
DTXSID20173189

> <dsstox_compound_id>
DTXCID9095680

> <qc_level>


> <Canonical_QSARr>
N#CC1C(C#N)=C(Cl)C(Cl)=C(Cl)C=1Cl

> <InChI_Code_QSARr>
InChI=1S/C8Cl4N2/c9-5-3(1-13)4(2-14)6(10)8(12)7(5)11

> <InChI Key_QSARr>
OQHXZZGZASQSOB-UHFFFAOYSA-N

> <Salt_Solvent>


> <Salt_Solvent_ID>
0

> <MPID>
101540

> <Tr_1_Tst_0>
1

> <Ready_Biodeg>
0.0

$$$$
Row1506
  Mrv171c012251911052D          

  8  8  0  0  0  0            999 V2000
   -0.2679    2.1141    0.0000 N   0  0  0  0  0  0  0  0  0  0  0  0
   -0.2679    1.2891    0.0000 C   0  0  0  0  0  0  0  0  0  0  0  0
   -0.2679    0.4641    0.0000 C   0  0  0  0  0  0  0  0  0  0  0  0
   -0.9824    0.0516    0.0000 C   0  0  0  0  0  0  0  0  0  0  0  0
   -0.9824   -0.7734    0.0000 C   0  0  0  0  0  0  0  0  0  0  0  0
   -0.2679   -1.1859    0.0000 C   0  0  0  0  0  0  0  0  0  0  0  0
    0.4466   -0.7734    0.0000 N   0  0  0  0  0  0  0  0  0  0  0  0
    0.4466    0.0516    0.0000 C   0  0  0  0  0  0  0  0  0  0  0  0
  1  2  3  0  0  0  0
  2  3  1  0  0  0  0
  4  3  2  0  0  0  0
  5  4  1  0  0  0  0
  6  5  2  0  0  0  0
  7  6  1  0  0  0  0
  8  7  2  0  0  0  0
  3  8  1  0  0  0  0
M  END
> <ChemID>
202002

> <CAS>
100-54-9

> <Original_SMILES>
N#Cc1c[n]ccc1

> <preferred_name>
3-Pyridinecarbonitrile

> <dsstox_substance_id>
DTXSID1026665

> <dsstox_compound_id>
DTXCID606665

> <qc_level>


> <Canonical_QSARr>
N#CC1C=NC=CC=1

> <InChI_Code_QSARr>
InChI=1S/C6H4N2/c7-4-6-2-1-3-8-5-6/h1-3,5H

> <InChI Key_QSARr>
GZPHSAQLYPIAIN-UHFFFAOYSA-N

> <Salt_Solvent>


> <Salt_Solvent_ID>
0

> <MPID>
101541

> <Tr_1_Tst_0>
0

> <Ready_Biodeg>
0.0

$$$$
Row1507
  Mrv171c012251911052D          

  9  9  0  0  0  0            999 V2000
   -0.9952    0.4338    0.0000 Cl  0  0  0  0  0  0  0  0  0  0  0  0
   -0.2807    0.0213    0.0000 C   0  0  0  0  0  0  0  0  0  0  0  0
   -0.2807   -0.8037    0.0000 C   0  0  0  0  0  0  0  0  0  0  0  0
    0.4338   -1.2162    0.0000 C   0  0  0  0  0  0  0  0  0  0  0  0
    1.1483   -0.8037    0.0000 C   0  0  0  0  0  0  0  0  0  0  0  0
    1.1483    0.0213    0.0000 C   0  0  0  0  0  0  0  0  0  0  0  0
    0.4338    0.4338    0.0000 C   0  0  0  0  0  0  0  0  0  0  0  0
    0.4338    1.2588    0.0000 C   0  0  0  0  0  0  0  0  0  0  0  0
    0.4338    2.0838    0.0000 N   0  0  0  0  0  0  0  0  0  0  0  0
  1  2  1  0  0  0  0
  3  2  2  0  0  0  0
  4  3  1  0  0  0  0
  5  4  2  0  0  0  0
  6  5  1  0  0  0  0
  7  6  2  0  0  0  0
  2  7  1  0  0  0  0
  7  8  1  0  0  0  0
  8  9  3  0  0  0  0
M  END
> <ChemID>
202007

> <CAS>
873-32-5

> <Original_SMILES>
N#Cc1ccccc1Cl

> <preferred_name>
2-Chlorobenzonitrile

> <dsstox_substance_id>
DTXSID5052593

> <dsstox_compound_id>
DTXCID2031166

> <qc_level>


> <Canonical_QSARr>
N#CC1=CC=CC=C1Cl

> <InChI_Code_QSARr>
InChI=1S/C7H4ClN/c8-7-4-2-1-3-6(7)5-9/h1-4H

> <InChI Key_QSARr>
NHWQMJMIYICNBP-UHFFFAOYSA-N

> <Salt_Solvent>


> <Salt_Solvent_ID>
0

> <MPID>
101542

> <Tr_1_Tst_0>
1

> <Ready_Biodeg>
0.0

$$$$
Row1508
  Mrv171c012251911052D          

  8  7  0  0  0  0            999 V2000
    1.1546    1.0441    0.0000 N   0  0  0  0  0  0  0  0  0  0  0  0
    0.7421    0.3296    0.0000 C   0  0  0  0  0  0  0  0  0  0  0  0
   -0.0829    0.3296    0.0000 N   0  0  0  0  0  0  0  0  0  0  0  0
   -0.4954    1.0441    0.0000 H   0  0  0  0  0  0  0  0  0  0  0  0
    1.1546   -0.3849    0.0000 N   0  0  0  0  0  0  0  0  0  0  0  0
    0.7421   -1.0993    0.0000 N   0  3  0  0  0  0  0  0  0  0  0  0
    1.1546   -1.8138    0.0000 O   0  5  0  0  0  0  0  0  0  0  0  0
   -0.0829   -1.0993    0.0000 O   0  0  0  0  0  0  0  0  0  0  0  0
  1  2  1  0  0  0  0
  2  3  2  0  0  0  0
  3  4  1  0  0  0  0
  2  5  1  0  0  0  0
  5  6  1  0  0  0  0
  6  7  1  0  0  0  0
  6  8  2  0  0  0  0
M  CHG  2   6   1   7  -1
M  END
> <ChemID>
202009

> <CAS>
556-88-7

> <Original_SMILES>
[H]/N=C(\N)/N[N+]([O-])=O

> <preferred_name>
Nitroguanidine

> <dsstox_substance_id>
DTXSID4024222

> <dsstox_compound_id>
DTXCID204222

> <qc_level>


> <Canonical_QSARr>
[H]/N=C(\N)/N[N+]([O-])=O

> <InChI_Code_QSARr>
InChI=1S/CH4N4O2/c2-1(3)4-5(6)7/h(H4,2,3,4)

> <InChI Key_QSARr>
IDCPFAYURAQKDZ-UHFFFAOYSA-N

> <Salt_Solvent>


> <Salt_Solvent_ID>
0

> <MPID>
101543

> <Tr_1_Tst_0>
1

> <Ready_Biodeg>
0.0

$$$$
Row1509
  Mrv171c012251911052D          

  7  6  0  0  0  0            999 V2000
   -0.2357    1.0207    0.0000 N   0  0  0  0  0  0  0  0  0  0  0  0
    0.1768    0.3062    0.0000 C   0  0  0  0  0  0  0  0  0  0  0  0
    1.0018    0.3062    0.0000 N   0  0  0  0  0  0  0  0  0  0  0  0
    1.4143   -0.4083    0.0000 H   0  0  0  0  0  0  0  0  0  0  0  0
   -0.2357   -0.4083    0.0000 S   0  0  0  0  0  0  0  0  0  0  0  0
    0.1768   -1.1227    0.0000 O   0  0  0  0  0  0  0  0  0  0  0  0
   -1.0607   -0.4083    0.0000 O   0  0  0  0  0  0  0  0  0  0  0  0
  1  2  1  0  0  0  0
  2  3  2  0  0  0  0
  3  4  1  0  0  0  0
  2  5  1  0  0  0  0
  5  6  1  0  0  0  0
  5  7  2  0  0  0  0
M  END
> <ChemID>
202010

> <CAS>
1758-73-2

> <Original_SMILES>
[H]/N=C(\N)/S(O)=O

> <preferred_name>
Amino(imino)methanesulfinic acid

> <dsstox_substance_id>
DTXSID4029224

> <dsstox_compound_id>
DTXCID509224

> <qc_level>


> <Canonical_QSARr>
[H]/N=C(\N)/S(O)=O

> <InChI_Code_QSARr>
InChI=1S/CH4N2O2S/c2-1(3)6(4)5/h(H3,2,3)(H,4,5)

> <InChI Key_QSARr>
FYOWZTWVYZOZSI-UHFFFAOYSA-N

> <Salt_Solvent>


> <Salt_Solvent_ID>
0

> <MPID>
101544

> <Tr_1_Tst_0>
0

> <Ready_Biodeg>
1.0

$$$$
Row1510
  Mrv171c012251911052D          

  8  7  0  0  0  0            999 V2000
    1.2237   -0.7660    0.0000 N   0  0  0  0  0  0  0  0  0  0  0  0
    0.8112   -0.0516    0.0000 C   0  0  0  0  0  0  0  0  0  0  0  0
    1.2237    0.6629    0.0000 O   0  0  0  0  0  0  0  0  0  0  0  0
   -0.0138   -0.0516    0.0000 C   0  0  0  0  0  0  0  0  0  0  0  0
   -0.0138    0.7734    0.0000 Br  0  0  0  0  0  0  0  0  0  0  0  0
   -0.0138   -0.8766    0.0000 Br  0  0  0  0  0  0  0  0  0  0  0  0
   -0.8388   -0.0516    0.0000 C   0  0  0  0  0  0  0  0  0  0  0  0
   -1.6638   -0.0516    0.0000 N   0  0  0  0  0  0  0  0  0  0  0  0
  1  2  1  0  0  0  0
  2  3  2  0  0  0  0
  2  4  1  0  0  0  0
  4  5  1  0  0  0  0
  4  6  1  0  0  0  0
  4  7  1  0  0  0  0
  7  8  3  0  0  0  0
M  END
> <ChemID>
202011

> <CAS>
10222-01-2

> <Original_SMILES>
NC(=O)C(Br)(Br)C#N

> <preferred_name>
2,2-Dibromo-3-nitrilopropionamide

> <dsstox_substance_id>
DTXSID5032361

> <dsstox_compound_id>
DTXCID3012361

> <qc_level>


> <Canonical_QSARr>
NC(=O)C(Br)(Br)C#N

> <InChI_Code_QSARr>
InChI=1S/C3H2Br2N2O/c4-3(5,1-6)2(7)8/h(H2,7,8)

> <InChI Key_QSARr>
UUIVKBHZENILKB-UHFFFAOYSA-N

> <Salt_Solvent>


> <Salt_Solvent_ID>
0

> <MPID>
101545

> <Tr_1_Tst_0>
1

> <Ready_Biodeg>
0.0

$$$$
Row1511
  Mrv171c012251911052D          

 10  9  0  0  0  0            999 V2000
    0.7349    1.0898    0.0000 N   0  0  0  0  0  0  0  0  0  0  0  0
    0.7349    0.2648    0.0000 C   0  0  0  0  0  0  0  0  0  0  0  0
    0.0204   -0.1477    0.0000 C   0  0  0  0  0  0  0  0  0  0  0  0
   -0.6941    0.2648    0.0000 C   0  0  0  0  0  0  0  0  0  0  0  0
   -1.4086   -0.1477    0.0000 C   0  0  0  0  0  0  0  0  0  0  0  0
   -2.1230    0.2648    0.0000 N   0  0  0  0  0  0  0  0  0  0  0  0
   -1.4086   -0.9727    0.0000 O   0  0  0  0  0  0  0  0  0  0  0  0
    1.4493   -0.1477    0.0000 C   0  0  0  0  0  0  0  0  0  0  0  0
    2.1638    0.2648    0.0000 O   0  0  0  0  0  0  0  0  0  0  0  0
    1.4493   -0.9727    0.0000 O   0  0  0  0  0  0  0  0  0  0  0  0
  1  2  1  0  0  0  0
  2  3  1  0  0  0  0
  3  4  1  0  0  0  0
  4  5  1  0  0  0  0
  5  6  1  0  0  0  0
  5  7  2  0  0  0  0
  2  8  1  0  0  0  0
  8  9  1  0  0  0  0
  8 10  2  0  0  0  0
M  END
> <ChemID>
202012

> <CAS>
56-85-9

> <Original_SMILES>
NC(=O)CCC(N)C(O)=O

> <preferred_name>
L-Glutamine

> <dsstox_substance_id>
DTXSID1023100

> <dsstox_compound_id>
DTXCID503100

> <qc_level>


> <Canonical_QSARr>
NC(=O)CCC(N)C(O)=O

> <InChI_Code_QSARr>
InChI=1S/C5H10N2O3/c6-3(5(9)10)1-2-4(7)8/h3H,1-2,6H2,(H2,7,8)(H,9,10)

> <InChI Key_QSARr>
ZDXPYRJPNDTMRX-UHFFFAOYSA-N

> <Salt_Solvent>


> <Salt_Solvent_ID>
0

> <MPID>
101546

> <Tr_1_Tst_0>
1

> <Ready_Biodeg>
1.0

$$$$
Row1512
  Mrv171c012251911052D          

  5  4  0  0  0  0            999 V2000
    1.5012   -0.3904    0.0000 N   0  0  0  0  0  0  0  0  0  0  0  0
    0.6762   -0.3904    0.0000 C   0  0  0  0  0  0  0  0  0  0  0  0
    0.2637   -1.1049    0.0000 O   0  0  0  0  0  0  0  0  0  0  0  0
    0.2637    0.3241    0.0000 C   0  0  0  0  0  0  0  0  0  0  0  0
   -0.5613    0.3241    0.0000 I   0  0  0  0  0  0  0  0  0  0  0  0
  1  2  1  0  0  0  0
  2  3  2  0  0  0  0
  2  4  1  0  0  0  0
  4  5  1  0  0  0  0
M  END
> <ChemID>
202013

> <CAS>
144-48-9

> <Original_SMILES>
NC(=O)CI

> <preferred_name>
Iodoacetamide

> <dsstox_substance_id>
DTXSID9020742

> <dsstox_compound_id>
DTXCID10742

> <qc_level>


> <Canonical_QSARr>
NC(=O)CI

> <InChI_Code_QSARr>
InChI=1S/C2H4INO/c3-1-2(4)5/h1H2,(H2,4,5)

> <InChI Key_QSARr>
PGLTVOMIXTUURA-UHFFFAOYSA-N

> <Salt_Solvent>


> <Salt_Solvent_ID>
0

> <MPID>
101547

> <Tr_1_Tst_0>
1

> <Ready_Biodeg>
0.0

$$$$
Row1513
  Mrv171c012251911052D          

  8  7  0  0  0  0            999 V2000
    2.0625    0.7145    0.0000 N   0  0  0  0  0  0  0  0  0  0  0  0
    1.2375    0.7145    0.0000 C   0  0  0  0  0  0  0  0  0  0  0  0
    0.8250    1.4289    0.0000 O   0  0  0  0  0  0  0  0  0  0  0  0
    0.8250    0.0000    0.0000 N   0  0  0  0  0  0  0  0  0  0  0  0
    0.0000    0.0000    0.0000 N   0  0  0  0  0  0  0  0  0  0  0  0
   -0.4125   -0.7145    0.0000 C   0  0  0  0  0  0  0  0  0  0  0  0
    0.0000   -1.4289    0.0000 N   0  0  0  0  0  0  0  0  0  0  0  0
   -1.2375   -0.7145    0.0000 O   0  0  0  0  0  0  0  0  0  0  0  0
  1  2  1  0  0  0  0
  2  3  2  0  0  0  0
  4  2  1  4  0  0  0
  4  5  2  0  0  0  0
  5  6  1  0  0  0  0
  6  7  1  0  0  0  0
  6  8  2  0  0  0  0
M  END
> <ChemID>
202014

> <CAS>
123-77-3

> <Original_SMILES>
NC(=O)/N=N/C(N)=O

> <preferred_name>
Azodicarbonamide

> <dsstox_substance_id>
DTXSID0024553

> <dsstox_compound_id>
DTXCID104553

> <qc_level>


> <Canonical_QSARr>
NC(=O)N=NC(N)=O

> <InChI_Code_QSARr>
InChI=1S/C2H4N4O2/c3-1(7)5-6-2(4)8/h(H2,3,7)(H2,4,8)

> <InChI Key_QSARr>
XOZUGNYVDXMRKW-UHFFFAOYSA-N

> <Salt_Solvent>


> <Salt_Solvent_ID>
0

> <MPID>
101548

> <Tr_1_Tst_0>
0

> <Ready_Biodeg>
0.0

$$$$
Row1514
  Mrv171c012251911052D          

 10 10  0  0  0  0            999 V2000
    0.4287    1.7767    0.0000 N   0  0  0  0  0  0  0  0  0  0  0  0
    0.4287    0.9517    0.0000 C   0  0  0  0  0  0  0  0  0  0  0  0
    1.1431    0.5392    0.0000 O   0  0  0  0  0  0  0  0  0  0  0  0
   -0.2858    0.5392    0.0000 N   0  0  0  0  0  0  0  0  0  0  0  0
   -0.2858   -0.2858    0.0000 C   0  0  0  0  0  0  0  0  0  0  0  0
   -1.0003   -0.6983    0.0000 C   0  0  0  0  0  0  0  0  0  0  0  0
   -1.0003   -1.5233    0.0000 C   0  0  0  0  0  0  0  0  0  0  0  0
   -0.2858   -1.9358    0.0000 C   0  0  0  0  0  0  0  0  0  0  0  0
    0.4287   -1.5233    0.0000 C   0  0  0  0  0  0  0  0  0  0  0  0
    0.4287   -0.6983    0.0000 C   0  0  0  0  0  0  0  0  0  0  0  0
  1  2  1  0  0  0  0
  2  3  2  0  0  0  0
  2  4  1  0  0  0  0
  4  5  1  0  0  0  0
  6  5  2  0  0  0  0
  7  6  1  0  0  0  0
  8  7  2  0  0  0  0
  9  8  1  0  0  0  0
 10  9  2  0  0  0  0
  5 10  1  0  0  0  0
M  END
> <ChemID>
202015

> <CAS>
64-10-8

> <Original_SMILES>
NC(=O)Nc1ccccc1

> <preferred_name>
1-Phenylurea

> <dsstox_substance_id>
DTXSID8042507

> <dsstox_compound_id>
DTXCID6022507

> <qc_level>


> <Canonical_QSARr>
NC(=O)NC1C=CC=CC=1

> <InChI_Code_QSARr>
InChI=1S/C7H8N2O/c8-7(10)9-6-4-2-1-3-5-6/h1-5H,(H3,8,9,10)

> <InChI Key_QSARr>
LUBJCRLGQSPQNN-UHFFFAOYSA-N

> <Salt_Solvent>


> <Salt_Solvent_ID>
0

> <MPID>
101549

> <Tr_1_Tst_0>
1

> <Ready_Biodeg>
0.0

$$$$
Row1515
  Mrv171c012251911052D          

 14 13  0  0  0  0            999 V2000
    3.6527    1.3304    0.0000 N   0  0  0  0  0  0  0  0  0  0  0  0
    3.6527    0.5054    0.0000 C   0  0  0  0  0  0  0  0  0  0  0  0
    2.9382    0.0929    0.0000 C   0  0  0  0  0  0  0  0  0  0  0  0
    2.2237    0.5054    0.0000 S   0  0  0  0  0  0  0  0  0  0  0  0
    1.5093    0.0929    0.0000 S   0  0  0  0  0  0  0  0  0  0  0  0
    0.7948    0.5054    0.0000 C   0  0  0  0  0  0  0  0  0  0  0  0
    0.0803    0.0929    0.0000 C   0  0  0  0  0  0  0  0  0  0  0  0
    0.0803   -0.7321    0.0000 N   0  0  0  0  0  0  0  0  0  0  0  0
   -0.6342    0.5054    0.0000 C   0  0  0  0  0  0  0  0  0  0  0  0
   -1.3486    0.0929    0.0000 O   0  0  0  0  0  0  0  0  0  0  0  0
   -0.6342    1.3304    0.0000 O   0  0  0  0  0  0  0  0  0  0  0  0
    4.3671    0.0929    0.0000 C   0  0  0  0  0  0  0  0  0  0  0  0
    5.0816    0.5054    0.0000 O   0  0  0  0  0  0  0  0  0  0  0  0
    4.3671   -0.7321    0.0000 O   0  0  0  0  0  0  0  0  0  0  0  0
  1  2  1  0  0  0  0
  2  3  1  0  0  0  0
  3  4  1  0  0  0  0
  4  5  1  0  0  0  0
  5  6  1  0  0  0  0
  6  7  1  0  0  0  0
  7  8  1  0  0  0  0
  7  9  1  0  0  0  0
  9 10  1  0  0  0  0
  9 11  2  0  0  0  0
  2 12  1  0  0  0  0
 12 13  1  0  0  0  0
 12 14  2  0  0  0  0
M  END
> <ChemID>
202017

> <CAS>
56-89-3

> <Original_SMILES>
NC(CSSCC(N)C(O)=O)C(O)=O

> <preferred_name>
L-Cystine

> <dsstox_substance_id>
DTXSID2046418

> <dsstox_compound_id>
DTXCID0026418

> <qc_level>


> <Canonical_QSARr>
NC(CSSCC(N)C(O)=O)C(O)=O

> <InChI_Code_QSARr>
InChI=1S/C6H12N2O4S2/c7-3(5(9)10)1-13-14-2-4(8)6(11)12/h3-4H,1-2,7-8H2,(H,9,10)(H,11,12)

> <InChI Key_QSARr>
LEVWYRKDKASIDU-UHFFFAOYSA-N

> <Salt_Solvent>


> <Salt_Solvent_ID>
0

> <MPID>
101550

> <Tr_1_Tst_0>
1

> <Ready_Biodeg>
1.0

$$$$
Row1516
  Mrv171c012251911052D          

  5  4  0  0  0  0            999 V2000
    0.4950    1.1432    0.0000 N   0  0  0  0  0  0  0  0  0  0  0  0
    0.9075    0.4287    0.0000 C   0  0  0  0  0  0  0  0  0  0  0  0
    0.4950   -0.2858    0.0000 C   0  0  0  0  0  0  0  0  0  0  0  0
    0.9075   -1.0003    0.0000 O   0  0  0  0  0  0  0  0  0  0  0  0
   -0.3300   -0.2858    0.0000 O   0  0  0  0  0  0  0  0  0  0  0  0
  1  2  1  0  0  0  0
  2  3  1  0  0  0  0
  3  4  1  0  0  0  0
  3  5  2  0  0  0  0
M  END
> <ChemID>
202022

> <CAS>
56-40-6

> <Original_SMILES>
NCC(O)=O

> <preferred_name>
Glycine

> <dsstox_substance_id>
DTXSID9020667

> <dsstox_compound_id>
DTXCID90667

> <qc_level>


> <Canonical_QSARr>
NCC(O)=O

> <InChI_Code_QSARr>
InChI=1S/C2H5NO2/c3-1-2(4)5/h1,3H2,(H,4,5)

> <InChI Key_QSARr>
DHMQDGOQFOQNFH-UHFFFAOYSA-N

> <Salt_Solvent>


> <Salt_Solvent_ID>
0

> <MPID>
101551

> <Tr_1_Tst_0>
0

> <Ready_Biodeg>
1.0

$$$$
Row1517
  Mrv171c012251911052D          

 10 10  0  0  0  0            999 V2000
   -1.7862   -2.1072    0.0000 N   0  0  0  0  0  0  0  0  0  0  0  0
   -1.7862   -1.2822    0.0000 C   0  0  0  0  0  0  0  0  0  0  0  0
   -1.0717   -0.8697    0.0000 C   0  0  0  0  0  0  0  0  0  0  0  0
   -0.3572   -1.2822    0.0000 C   0  0  0  0  0  0  0  0  0  0  0  0
    0.3572   -0.8697    0.0000 C   0  0  0  0  0  0  0  0  0  0  0  0
    0.3572   -0.0447    0.0000 C   0  0  0  0  0  0  0  0  0  0  0  0
   -0.3572    0.3678    0.0000 C   0  0  0  0  0  0  0  0  0  0  0  0
   -0.3572    1.1928    0.0000 C   0  0  0  0  0  0  0  0  0  0  0  0
   -1.0717    1.6053    0.0000 N   0  0  0  0  0  0  0  0  0  0  0  0
   -1.0717   -0.0447    0.0000 C   0  0  0  0  0  0  0  0  0  0  0  0
  1  2  1  0  0  0  0
  2  3  1  0  0  0  0
  4  3  1  0  0  0  0
  5  4  1  0  0  0  0
  6  5  1  0  0  0  0
  7  6  1  0  0  0  0
  7  8  1  0  0  0  0
  8  9  1  0  0  0  0
 10  7  1  0  0  0  0
  3 10  1  0  0  0  0
M  END
> <ChemID>
202023

> <CAS>
2579-20-6

> <Original_SMILES>
NCC1CC(CCC1)CN

> <preferred_name>
1,3-Cyclohexanedimethanamine

> <dsstox_substance_id>
DTXSID4041238

> <dsstox_compound_id>
DTXCID2021238

> <qc_level>


> <Canonical_QSARr>
NCC1CC(CCC1)CN

> <InChI_Code_QSARr>
InChI=1S/C8H18N2/c9-5-7-2-1-3-8(4-7)6-10/h7-8H,1-6,9-10H2

> <InChI Key_QSARr>
QLBRROYTTDFLDX-UHFFFAOYSA-N

> <Salt_Solvent>


> <Salt_Solvent_ID>
0

> <MPID>
101552

> <Tr_1_Tst_0>
1

> <Ready_Biodeg>
0.0

$$$$
Row1518
  Mrv171c012251911052D          

 11 11  0  0  0  0            999 V2000
   -1.5028   -2.7912    0.0000 N   0  0  0  0  0  0  0  0  0  0  0  0
   -0.7883   -2.3787    0.0000 C   0  0  0  0  0  0  0  0  0  0  0  0
   -0.7883   -1.5537    0.0000 C   0  0  0  0  0  0  0  0  0  0  0  0
   -0.0738   -1.1412    0.0000 C   0  0  0  0  0  0  0  0  0  0  0  0
   -0.0738   -0.3162    0.0000 C   0  0  0  0  0  0  0  0  0  0  0  0
   -0.7883    0.0963    0.0000 C   0  0  0  0  0  0  0  0  0  0  0  0
   -0.7883    0.9213    0.0000 C   0  0  0  0  0  0  0  0  0  0  0  0
   -1.5028    1.3338    0.0000 O   0  0  0  0  0  0  0  0  0  0  0  0
   -0.0738    1.3338    0.0000 O   0  0  0  0  0  0  0  0  0  0  0  0
   -1.5028   -0.3162    0.0000 C   0  0  0  0  0  0  0  0  0  0  0  0
   -1.5028   -1.1412    0.0000 C   0  0  0  0  0  0  0  0  0  0  0  0
  1  2  1  0  0  0  0
  2  3  1  0  0  0  0
  4  3  1  0  0  0  0
  5  4  1  0  0  0  0
  6  5  1  0  0  0  0
  6  7  1  0  0  0  0
  7  8  1  0  0  0  0
  7  9  2  0  0  0  0
 10  6  1  0  0  0  0
 11 10  1  0  0  0  0
  3 11  1  0  0  0  0
M  END
> <ChemID>
202024

> <CAS>
1197-18-8

> <Original_SMILES>
NCC1CCC(CC1)C(O)=O

> <preferred_name>
Tranexamic acid

> <dsstox_substance_id>
DTXSID3045350

> <dsstox_compound_id>
DTXCID401333941

> <qc_level>


> <Canonical_QSARr>
NCC1CCC(CC1)C(O)=O

> <InChI_Code_QSARr>
InChI=1S/C8H15NO2/c9-5-6-1-3-7(4-2-6)8(10)11/h6-7H,1-5,9H2,(H,10,11)

> <InChI Key_QSARr>
GYDJEQRTZSCIOI-UHFFFAOYSA-N

> <Salt_Solvent>


> <Salt_Solvent_ID>
0

> <MPID>
101553

> <Tr_1_Tst_0>
1

> <Ready_Biodeg>
0.0

$$$$
Row1519
  Mrv171c012251911052D          

  6  5  0  0  0  0            999 V2000
    0.2062    1.5480    0.0000 N   0  0  0  0  0  0  0  0  0  0  0  0
   -0.2063    0.8335    0.0000 C   0  0  0  0  0  0  0  0  0  0  0  0
    0.2062    0.1191    0.0000 C   0  0  0  0  0  0  0  0  0  0  0  0
   -0.2062   -0.5954    0.0000 C   0  0  0  0  0  0  0  0  0  0  0  0
    0.2063   -1.3099    0.0000 O   0  0  0  0  0  0  0  0  0  0  0  0
   -1.0312   -0.5954    0.0000 O   0  0  0  0  0  0  0  0  0  0  0  0
  1  2  1  0  0  0  0
  2  3  1  0  0  0  0
  3  4  1  0  0  0  0
  4  5  1  0  0  0  0
  4  6  2  0  0  0  0
M  END
> <ChemID>
202025

> <CAS>
107-95-9

> <Original_SMILES>
NCCC(O)=O

> <preferred_name>
beta-Alanine

> <dsstox_substance_id>
DTXSID0030823

> <dsstox_compound_id>
DTXCID8010823

> <qc_level>


> <Canonical_QSARr>
NCCC(O)=O

> <InChI_Code_QSARr>
InChI=1S/C3H7NO2/c4-2-1-3(5)6/h1-2,4H2,(H,5,6)

> <InChI Key_QSARr>
UCMIRNVEIXFBKS-UHFFFAOYSA-N

> <Salt_Solvent>


> <Salt_Solvent_ID>
0

> <MPID>
101554

> <Tr_1_Tst_0>
1

> <Ready_Biodeg>
1.0

$$$$
Row1520
  Mrv171c012251911052D          

 19 20  0  0  0  0            999 V2000
   -4.1250    1.1281    0.0000 N   0  0  0  0  0  0  0  0  0  0  0  0
   -3.7125    0.4136    0.0000 C   0  0  0  0  0  0  0  0  0  0  0  0
   -2.8875    0.4136    0.0000 C   0  0  0  0  0  0  0  0  0  0  0  0
   -2.4750   -0.3008    0.0000 C   0  0  0  0  0  0  0  0  0  0  0  0
   -1.6500   -0.3008    0.0000 C   0  0  0  0  0  0  0  0  0  0  0  0
   -1.2375   -1.0153    0.0000 O   0  0  0  0  0  0  0  0  0  0  0  0
   -0.4125   -1.0153    0.0000 C   0  0  0  0  0  0  0  0  0  0  0  0
    0.0000   -0.3008    0.0000 C   0  0  0  0  0  0  0  0  0  0  0  0
    0.4125   -1.0153    0.0000 C   0  0  0  0  0  0  0  0  0  0  0  0
    1.2375   -1.0153    0.0000 O   0  0  0  0  0  0  0  0  0  0  0  0
    1.6500   -0.3008    0.0000 C   0  0  0  0  0  0  0  0  0  0  0  0
    2.4750   -0.3008    0.0000 C   0  0  0  0  0  0  0  0  0  0  0  0
    2.8875    0.4136    0.0000 C   0  0  0  0  0  0  0  0  0  0  0  0
    3.7125    0.4136    0.0000 C   0  0  0  0  0  0  0  0  0  0  0  0
    4.1250    1.1281    0.0000 N   0  0  0  0  0  0  0  0  0  0  0  0
    1.2375    0.4136    0.0000 O   0  0  0  0  0  0  0  0  0  0  0  0
    0.4125    0.4136    0.0000 C   0  0  0  0  0  0  0  0  0  0  0  0
   -0.4125    0.4136    0.0000 C   0  0  0  0  0  0  0  0  0  0  0  0
   -1.2375    0.4136    0.0000 O   0  0  0  0  0  0  0  0  0  0  0  0
  1  2  1  0  0  0  0
  2  3  1  0  0  0  0
  3  4  1  0  0  0  0
  4  5  1  0  0  0  0
  6  5  1  0  0  0  0
  7  6  1  0  0  0  0
  8  7  1  0  0  0  0
  9  8  1  0  0  0  0
 10  9  1  0  0  0  0
 11 10  1  0  0  0  0
 11 12  1  0  0  0  0
 12 13  1  0  0  0  0
 13 14  1  0  0  0  0
 14 15  1  0  0  0  0
 16 11  1  0  0  0  0
 17 16  1  0  0  0  0
  8 17  1  0  0  0  0
 18  8  1  0  0  0  0
 19 18  1  0  0  0  0
  5 19  1  0  0  0  0
M  END
> <ChemID>
202026

> <CAS>
21587-74-6

> <Original_SMILES>
NCCCC1OCC2(CO1)COC(CCCN)OC2

> <preferred_name>
2,4,8,10-Tetraoxaspiro[5.5]undecane-3,9-dipropanamine

> <dsstox_substance_id>
DTXSID8066715

> <dsstox_compound_id>
DTXCID4036514

> <qc_level>


> <Canonical_QSARr>
NCCCC1OCC2(CO1)COC(CCCN)OC2

> <InChI_Code_QSARr>
InChI=1S/C13H26N2O4/c14-5-1-3-11-16-7-13(8-17-11)9-18-12(19-10-13)4-2-6-15/h11-12H,1-10,14-15H2

> <InChI Key_QSARr>
ANOPCGQVRXJHHD-UHFFFAOYSA-N

> <Salt_Solvent>


> <Salt_Solvent_ID>
0

> <MPID>
101555

> <Tr_1_Tst_0>
0

> <Ready_Biodeg>
0.0

$$$$
Row1521
  Mrv171c012251911052D          

  9  9  0  0  0  0            999 V2000
    0.5557    2.1542    0.0000 N   0  0  0  0  0  0  0  0  0  0  0  0
    0.5557    1.3292    0.0000 C   0  0  0  0  0  0  0  0  0  0  0  0
   -0.1588    0.9167    0.0000 C   0  0  0  0  0  0  0  0  0  0  0  0
   -0.1588    0.0917    0.0000 N   0  0  0  0  0  0  0  0  0  0  0  0
   -0.8732   -0.3208    0.0000 C   0  0  0  0  0  0  0  0  0  0  0  0
   -0.8732   -1.1458    0.0000 C   0  0  0  0  0  0  0  0  0  0  0  0
   -0.1588   -1.5583    0.0000 N   0  0  0  0  0  0  0  0  0  0  0  0
    0.5557   -1.1458    0.0000 C   0  0  0  0  0  0  0  0  0  0  0  0
    0.5557   -0.3208    0.0000 C   0  0  0  0  0  0  0  0  0  0  0  0
  1  2  1  0  0  0  0
  2  3  1  0  0  0  0
  3  4  1  0  0  0  0
  5  4  1  0  0  0  0
  6  5  1  0  0  0  0
  7  6  1  0  0  0  0
  8  7  1  0  0  0  0
  9  8  1  0  0  0  0
  4  9  1  0  0  0  0
M  END
> <ChemID>
202028

> <CAS>
140-31-8

> <Original_SMILES>
NCCN1CCNCC1

> <preferred_name>
1-(2-Aminoethyl)piperazine

> <dsstox_substance_id>
DTXSID2021997

> <dsstox_compound_id>
DTXCID401997

> <qc_level>


> <Canonical_QSARr>
NCCN1CCNCC1

> <InChI_Code_QSARr>
InChI=1S/C6H15N3/c7-1-4-9-5-2-8-3-6-9/h8H,1-7H2

> <InChI Key_QSARr>
IMUDHTPIFIBORV-UHFFFAOYSA-N

> <Salt_Solvent>


> <Salt_Solvent_ID>
0

> <MPID>
101556

> <Tr_1_Tst_0>
1

> <Ready_Biodeg>
0.0

$$$$
Row1522
  Mrv171c012251911052D          

 10  9  0  0  0  0            999 V2000
   -2.8579   -0.0000    0.0000 N   0  0  0  0  0  0  0  0  0  0  0  0
   -2.1434    0.4125    0.0000 C   0  0  0  0  0  0  0  0  0  0  0  0
   -1.4290   -0.0000    0.0000 C   0  0  0  0  0  0  0  0  0  0  0  0
   -0.7145    0.4125    0.0000 N   0  0  0  0  0  0  0  0  0  0  0  0
   -0.0000   -0.0000    0.0000 C   0  0  0  0  0  0  0  0  0  0  0  0
    0.7144    0.4125    0.0000 C   0  0  0  0  0  0  0  0  0  0  0  0
    1.4289   -0.0000    0.0000 N   0  0  0  0  0  0  0  0  0  0  0  0
    2.1434    0.4125    0.0000 C   0  0  0  0  0  0  0  0  0  0  0  0
    2.8579   -0.0000    0.0000 C   0  0  0  0  0  0  0  0  0  0  0  0
    3.5723    0.4125    0.0000 N   0  0  0  0  0  0  0  0  0  0  0  0
  1  2  1  0  0  0  0
  2  3  1  0  0  0  0
  3  4  1  0  0  0  0
  4  5  1  0  0  0  0
  5  6  1  0  0  0  0
  6  7  1  0  0  0  0
  7  8  1  0  0  0  0
  8  9  1  0  0  0  0
  9 10  1  0  0  0  0
M  END
> <ChemID>
202030

> <CAS>
112-24-3

> <Original_SMILES>
NCCNCCNCCN

> <preferred_name>
Triethylenetetramine

> <dsstox_substance_id>
DTXSID9023702

> <dsstox_compound_id>
DTXCID503702

> <qc_level>


> <Canonical_QSARr>
NCCNCCNCCN

> <InChI_Code_QSARr>
InChI=1S/C6H18N4/c7-1-3-9-5-6-10-4-2-8/h9-10H,1-8H2

> <InChI Key_QSARr>
VILCJCGEZXAXTO-UHFFFAOYSA-N

> <Salt_Solvent>


> <Salt_Solvent_ID>
0

> <MPID>
101557

> <Tr_1_Tst_0>
0

> <Ready_Biodeg>
0.0

$$$$
Row1523
  Mrv171c012251911052D          

 11 11  0  0  0  0            999 V2000
   -3.1177   -1.0500    0.0000 N   0  0  0  0  0  0  0  0  0  0  0  0
   -2.4032   -0.6375    0.0000 C   0  0  0  0  0  0  0  0  0  0  0  0
   -1.6888   -1.0500    0.0000 C   0  0  0  0  0  0  0  0  0  0  0  0
   -0.9743   -0.6375    0.0000 N   0  0  0  0  0  0  0  0  0  0  0  0
   -0.2598   -1.0500    0.0000 C   0  0  0  0  0  0  0  0  0  0  0  0
    0.4546   -0.6375    0.0000 C   0  0  0  0  0  0  0  0  0  0  0  0
    1.1691   -1.0500    0.0000 C   0  0  0  0  0  0  0  0  0  0  0  0
    1.8836   -0.6375    0.0000 C   0  0  0  0  0  0  0  0  0  0  0  0
    1.8836    0.1875    0.0000 C   0  0  0  0  0  0  0  0  0  0  0  0
    1.1691    0.6000    0.0000 C   0  0  0  0  0  0  0  0  0  0  0  0
    0.4546    0.1875    0.0000 C   0  0  0  0  0  0  0  0  0  0  0  0
  1  2  1  0  0  0  0
  2  3  1  0  0  0  0
  3  4  1  0  0  0  0
  4  5  1  0  0  0  0
  5  6  1  0  0  0  0
  7  6  2  0  0  0  0
  8  7  1  0  0  0  0
  9  8  2  0  0  0  0
 10  9  1  0  0  0  0
 11 10  2  0  0  0  0
  6 11  1  0  0  0  0
M  END
> <ChemID>
202032

> <CAS>
4152-09-4

> <Original_SMILES>
NCCNCc1ccccc1

> <preferred_name>
1,2-Ethanediamine, N-(phenylmethyl)-

> <dsstox_substance_id>
DTXSID9063322

> <dsstox_compound_id>
DTXCID4039940

> <qc_level>


> <Canonical_QSARr>
NCCNCC1C=CC=CC=1

> <InChI_Code_QSARr>
InChI=1S/C9H14N2/c10-6-7-11-8-9-4-2-1-3-5-9/h1-5,11H,6-8,10H2

> <InChI Key_QSARr>
ACYBVNYNIZTUIL-UHFFFAOYSA-N

> <Salt_Solvent>


> <Salt_Solvent_ID>
0

> <MPID>
101558

> <Tr_1_Tst_0>
1

> <Ready_Biodeg>
0.0

$$$$
Row1524
  Mrv171c012251911052D          

 12 11  0  0  0  0            999 V2000
   -2.8026   -0.2062    0.0000 N   0  0  0  0  0  0  0  0  0  0  0  0
   -2.0881    0.2063    0.0000 N   0  0  0  0  0  0  0  0  0  0  0  0
   -1.3737   -0.2062    0.0000 C   0  0  0  0  0  0  0  0  0  0  0  0
   -1.3737   -1.0312    0.0000 O   0  0  0  0  0  0  0  0  0  0  0  0
   -0.6592    0.2063    0.0000 C   0  0  0  0  0  0  0  0  0  0  0  0
    0.0553   -0.2062    0.0000 C   0  0  0  0  0  0  0  0  0  0  0  0
    0.7698    0.2063    0.0000 C   0  0  0  0  0  0  0  0  0  0  0  0
    1.4842   -0.2063    0.0000 C   0  0  0  0  0  0  0  0  0  0  0  0
    2.1987    0.2062    0.0000 C   0  0  0  0  0  0  0  0  0  0  0  0
    2.1987    1.0312    0.0000 O   0  0  0  0  0  0  0  0  0  0  0  0
    2.9132   -0.2063    0.0000 N   0  0  0  0  0  0  0  0  0  0  0  0
    3.6276    0.2062    0.0000 N   0  0  0  0  0  0  0  0  0  0  0  0
  1  2  1  0  0  0  0
  2  3  1  0  0  0  0
  3  4  2  0  0  0  0
  3  5  1  0  0  0  0
  5  6  1  0  0  0  0
  6  7  1  0  0  0  0
  7  8  1  0  0  0  0
  8  9  1  0  0  0  0
  9 10  2  0  0  0  0
  9 11  1  0  0  0  0
 11 12  1  0  0  0  0
M  END
> <ChemID>
202036

> <CAS>
1071-93-8

> <Original_SMILES>
NNC(=O)CCCCC(=O)NN

> <preferred_name>
Hexanedihydrazide

> <dsstox_substance_id>
DTXSID0044361

> <dsstox_compound_id>
DTXCID8024361

> <qc_level>


> <Canonical_QSARr>
NNC(=O)CCCCC(=O)NN

> <InChI_Code_QSARr>
InChI=1S/C6H14N4O2/c7-9-5(11)3-1-2-4-6(12)10-8/h1-4,7-8H2,(H,9,11)(H,10,12)

> <InChI Key_QSARr>
IBVAQQYNSHJXBV-UHFFFAOYSA-N

> <Salt_Solvent>


> <Salt_Solvent_ID>
0

> <MPID>
101559

> <Tr_1_Tst_0>
1

> <Ready_Biodeg>
0.0

$$$$
Row1525
  Mrv171c012251911052D          

 11 11  0  0  0  0            999 V2000
    1.3311    0.2350    0.0000 N   0  0  0  0  0  0  0  0  0  0  0  0
    0.6167    0.6475    0.0000 N   0  0  0  0  0  0  0  0  0  0  0  0
   -0.0978    0.2350    0.0000 C   0  0  0  0  0  0  0  0  0  0  0  0
   -0.8123    0.6475    0.0000 C   0  0  0  0  0  0  0  0  0  0  0  0
   -0.8123    1.4725    0.0000 Cl  0  0  0  0  0  0  0  0  0  0  0  0
   -1.5268    0.2350    0.0000 C   0  0  0  0  0  0  0  0  0  0  0  0
   -1.5268   -0.5900    0.0000 C   0  0  0  0  0  0  0  0  0  0  0  0
   -2.2412   -1.0025    0.0000 Cl  0  0  0  0  0  0  0  0  0  0  0  0
   -0.8123   -1.0025    0.0000 C   0  0  0  0  0  0  0  0  0  0  0  0
   -0.0978   -0.5900    0.0000 C   0  0  0  0  0  0  0  0  0  0  0  0
    0.6167   -1.0025    0.0000 Cl  0  0  0  0  0  0  0  0  0  0  0  0
  1  2  1  0  0  0  0
  2  3  1  0  0  0  0
  4  3  2  0  0  0  0
  4  5  1  0  0  0  0
  6  4  1  0  0  0  0
  7  6  2  0  0  0  0
  7  8  1  0  0  0  0
  9  7  1  0  0  0  0
 10  9  2  0  0  0  0
  3 10  1  0  0  0  0
 10 11  1  0  0  0  0
M  END
> <ChemID>
202039

> <CAS>
5329-12-4

> <Original_SMILES>
NNc1c(Cl)cc(Cl)cc1Cl

> <preferred_name>
Hydrazine, (2,4,6-trichlorophenyl)-

> <dsstox_substance_id>
DTXSID5063780

> <dsstox_compound_id>
DTXCID2041387

> <qc_level>


> <Canonical_QSARr>
NNC1C(Cl)=CC(Cl)=CC=1Cl

> <InChI_Code_QSARr>
InChI=1S/C6H5Cl3N2/c7-3-1-4(8)6(11-10)5(9)2-3/h1-2,11H,10H2

> <InChI Key_QSARr>
MULHANRBCQBHII-UHFFFAOYSA-N

> <Salt_Solvent>


> <Salt_Solvent_ID>
0

> <MPID>
101560

> <Tr_1_Tst_0>
1

> <Ready_Biodeg>
0.0

$$$$
Row1526
  Mrv171c012251911052D          

 14 15  0  0  0  0            999 V2000
    2.9526   -0.3536    0.0000 N   0  0  0  0  0  0  0  0  0  0  0  0
    2.2382    0.0589    0.0000 C   0  0  0  0  0  0  0  0  0  0  0  0
    2.2382    0.8839    0.0000 N   0  0  0  0  0  0  0  0  0  0  0  0
    1.5237    1.2964    0.0000 C   0  0  0  0  0  0  0  0  0  0  0  0
    1.5237    2.1214    0.0000 N   0  0  0  0  0  0  0  0  0  0  0  0
    0.8092    0.8839    0.0000 N   0  0  0  0  0  0  0  0  0  0  0  0
    0.8092    0.0589    0.0000 C   0  0  0  0  0  0  0  0  0  0  0  0
    0.0947   -0.3536    0.0000 C   0  0  0  0  0  0  0  0  0  0  0  0
   -0.6197    0.0589    0.0000 C   0  0  0  0  0  0  0  0  0  0  0  0
   -1.3342   -0.3536    0.0000 C   0  0  0  0  0  0  0  0  0  0  0  0
   -1.3342   -1.1786    0.0000 C   0  0  0  0  0  0  0  0  0  0  0  0
   -0.6197   -1.5911    0.0000 C   0  0  0  0  0  0  0  0  0  0  0  0
    0.0947   -1.1786    0.0000 C   0  0  0  0  0  0  0  0  0  0  0  0
    1.5237   -0.3536    0.0000 N   0  0  0  0  0  0  0  0  0  0  0  0
  1  2  1  0  0  0  0
  3  2  2  0  0  0  0
  4  3  1  0  0  0  0
  4  5  1  0  0  0  0
  6  4  2  0  0  0  0
  7  6  1  0  0  0  0
  7  8  1  0  0  0  0
  9  8  2  0  0  0  0
 10  9  1  0  0  0  0
 11 10  2  0  0  0  0
 12 11  1  0  0  0  0
 13 12  2  0  0  0  0
  8 13  1  0  0  0  0
 14  7  2  0  0  0  0
  2 14  1  0  0  0  0
M  END
> <ChemID>
202043

> <CAS>
91-76-9

> <Original_SMILES>
Nc1[n]c([n]c(N)[n]1)-c1ccccc1

> <preferred_name>
6-Phenyl-1,3,5-triazine-2,4-diamine

> <dsstox_substance_id>
DTXSID1020142

> <dsstox_compound_id>
DTXCID50142

> <qc_level>


> <Canonical_QSARr>
NC1=NC(=NC(N)=N1)C1C=CC=CC=1

> <InChI_Code_QSARr>
InChI=1S/C9H9N5/c10-8-12-7(13-9(11)14-8)6-4-2-1-3-5-6/h1-5H,(H4,10,11,12,13,14)

> <InChI Key_QSARr>
GZVHEAJQGPRDLQ-UHFFFAOYSA-N

> <Salt_Solvent>


> <Salt_Solvent_ID>
0

> <MPID>
101561

> <Tr_1_Tst_0>
1

> <Ready_Biodeg>
0.0

$$$$
Row1527
  Mrv171c012251911052D          

  6  6  0  0  0  0            999 V2000
   -0.4449    1.2256    0.0000 N   0  0  0  0  0  0  0  0  0  0  0  0
   -0.4449    0.4006    0.0000 C   0  0  0  0  0  0  0  0  0  0  0  0
   -1.1123   -0.0844    0.0000 S   0  0  0  0  0  0  0  0  0  0  0  0
   -0.8574   -0.8690    0.0000 C   0  0  0  0  0  0  0  0  0  0  0  0
   -0.0324   -0.8690    0.0000 C   0  0  0  0  0  0  0  0  0  0  0  0
    0.2226   -0.0844    0.0000 N   0  0  0  0  0  0  0  0  0  0  0  0
  1  2  1  0  0  0  0
  3  2  1  0  0  0  0
  4  3  1  0  0  0  0
  5  4  2  0  0  0  0
  6  5  1  0  0  0  0
  2  6  2  0  0  0  0
M  END
> <ChemID>
202044

> <CAS>
96-50-4

> <Original_SMILES>
Nc1[n]cc[s]1

> <preferred_name>
2-Aminothiazole

> <dsstox_substance_id>
DTXSID5024508

> <dsstox_compound_id>
DTXCID604508

> <qc_level>


> <Canonical_QSARr>
NC1=NC=CS1

> <InChI_Code_QSARr>
InChI=1S/C3H4N2S/c4-3-5-1-2-6-3/h1-2H,(H2,4,5)

> <InChI Key_QSARr>
RAIPHJJURHTUIC-UHFFFAOYSA-N

> <Salt_Solvent>


> <Salt_Solvent_ID>
0

> <MPID>
101562

> <Tr_1_Tst_0>
1

> <Ready_Biodeg>
0.0

$$$$
Row1528
  Mrv171c012251911052D          

 19 21  0  0  0  0            999 V2000
   -0.7145    1.9757    0.0000 N   0  0  0  0  0  0  0  0  0  0  0  0
   -0.7145    1.1507    0.0000 C   0  0  0  0  0  0  0  0  0  0  0  0
   -1.4289    0.7382    0.0000 C   0  0  0  0  0  0  0  0  0  0  0  0
   -2.1434    1.1507    0.0000 Br  0  0  0  0  0  0  0  0  0  0  0  0
   -1.4289   -0.0868    0.0000 C   0  0  0  0  0  0  0  0  0  0  0  0
   -0.7145   -0.4993    0.0000 C   0  0  0  0  0  0  0  0  0  0  0  0
   -0.7145   -1.3243    0.0000 O   0  0  0  0  0  0  0  0  0  0  0  0
    0.0000   -0.0868    0.0000 C   0  0  0  0  0  0  0  0  0  0  0  0
    0.7145   -0.4993    0.0000 C   0  0  0  0  0  0  0  0  0  0  0  0
    0.7145   -1.3243    0.0000 O   0  0  0  0  0  0  0  0  0  0  0  0
    1.4289   -0.0868    0.0000 C   0  0  0  0  0  0  0  0  0  0  0  0
    2.1434   -0.4993    0.0000 C   0  0  0  0  0  0  0  0  0  0  0  0
    2.8579   -0.0868    0.0000 C   0  0  0  0  0  0  0  0  0  0  0  0
    2.8579    0.7382    0.0000 C   0  0  0  0  0  0  0  0  0  0  0  0
    2.1434    1.1507    0.0000 C   0  0  0  0  0  0  0  0  0  0  0  0
    1.4289    0.7382    0.0000 C   0  0  0  0  0  0  0  0  0  0  0  0
    0.7145    1.1507    0.0000 C   0  0  0  0  0  0  0  0  0  0  0  0
    0.7145    1.9757    0.0000 O   0  0  0  0  0  0  0  0  0  0  0  0
    0.0000    0.7382    0.0000 C   0  0  0  0  0  0  0  0  0  0  0  0
  1  2  1  0  0  0  0
  3  2  2  0  0  0  0
  3  4  1  0  0  0  0
  5  3  1  0  0  0  0
  6  5  2  0  0  0  0
  6  7  1  0  0  0  0
  8  6  1  0  0  0  0
  8  9  1  0  0  0  0
  9 10  2  0  0  0  0
  9 11  1  0  0  0  0
 12 11  2  0  0  0  0
 13 12  1  0  0  0  0
 14 13  2  0  0  0  0
 15 14  1  0  0  0  0
 16 15  2  0  0  0  0
 11 16  1  0  0  0  0
 16 17  1  0  0  0  0
 17 18  2  0  0  0  0
 17 19  1  0  0  0  0
  2 19  1  0  0  0  0
 19  8  2  0  0  0  0
M  END
> <ChemID>
202045

> <CAS>
116-82-5

> <Original_SMILES>
Nc1c(Br)cc(O)c2c1C(=O)c1ccccc1C2=O

> <preferred_name>
9,10-Anthracenedione, 1-amino-2-bromo-4-hydroxy-

> <dsstox_substance_id>
DTXSID2059439

> <dsstox_compound_id>
DTXCID6033378

> <qc_level>


> <Canonical_QSARr>
NC1=C(Br)C=C(O)C2=C1C(=O)C1=CC=CC=C1C2=O

> <InChI_Code_QSARr>
InChI=1S/C14H8BrNO3/c15-8-5-9(17)10-11(12(8)16)14(19)7-4-2-1-3-6(7)13(10)18/h1-5,17H,16H2

> <InChI Key_QSARr>
MSSQDESMUMSQEN-UHFFFAOYSA-N

> <Salt_Solvent>


> <Salt_Solvent_ID>
0

> <MPID>
101563

> <Tr_1_Tst_0>
1

> <Ready_Biodeg>
0.0

$$$$
Row1529
  Mrv171c012251911052D          

 14 14  0  0  0  0            999 V2000
    0.7145    0.8839    0.0000 N   0  0  0  0  0  0  0  0  0  0  0  0
   -0.0000    0.4714    0.0000 C   0  0  0  0  0  0  0  0  0  0  0  0
   -0.7145    0.8839    0.0000 C   0  0  0  0  0  0  0  0  0  0  0  0
   -0.7145    1.7089    0.0000 Cl  0  0  0  0  0  0  0  0  0  0  0  0
   -1.4289    0.4714    0.0000 C   0  0  0  0  0  0  0  0  0  0  0  0
   -1.4289   -0.3536    0.0000 C   0  0  0  0  0  0  0  0  0  0  0  0
   -2.1434   -0.7661    0.0000 N   0  3  0  0  0  0  0  0  0  0  0  0
   -2.1434   -1.5911    0.0000 O   0  5  0  0  0  0  0  0  0  0  0  0
   -2.8579   -0.3536    0.0000 O   0  0  0  0  0  0  0  0  0  0  0  0
   -0.7145   -0.7661    0.0000 C   0  0  0  0  0  0  0  0  0  0  0  0
   -0.0000   -0.3536    0.0000 C   0  0  0  0  0  0  0  0  0  0  0  0
    0.7145   -0.7661    0.0000 N   0  3  0  0  0  0  0  0  0  0  0  0
    1.4289   -0.3536    0.0000 O   0  5  0  0  0  0  0  0  0  0  0  0
    0.7145   -1.5911    0.0000 O   0  0  0  0  0  0  0  0  0  0  0  0
  1  2  1  0  0  0  0
  3  2  2  0  0  0  0
  3  4  1  0  0  0  0
  5  3  1  0  0  0  0
  6  5  2  0  0  0  0
  6  7  1  0  0  0  0
  7  8  1  0  0  0  0
  7  9  2  0  0  0  0
 10  6  1  0  0  0  0
 11 10  2  0  0  0  0
  2 11  1  0  0  0  0
 11 12  1  0  0  0  0
 12 13  1  0  0  0  0
 12 14  2  0  0  0  0
M  CHG  4   7   1   8  -1  12   1  13  -1
M  END
> <ChemID>
202047

> <CAS>
3531-19-9

> <Original_SMILES>
Nc1c(Cl)cc(cc1[N+]([O-])=O)[N+]([O-])=O

> <preferred_name>
2-Chloro-4,6-dinitroaniline

> <dsstox_substance_id>
DTXSID6063062

> <dsstox_compound_id>
DTXCID2038994

> <qc_level>


> <Canonical_QSARr>
NC1=C(Cl)C=C(C=C1[N+]([O-])=O)[N+]([O-])=O

> <InChI_Code_QSARr>
InChI=1S/C6H4ClN3O4/c7-4-1-3(9(11)12)2-5(6(4)8)10(13)14/h1-2H,8H2

> <InChI Key_QSARr>
LHRIICYSGQGXSX-UHFFFAOYSA-N

> <Salt_Solvent>


> <Salt_Solvent_ID>
0

> <MPID>
101564

> <Tr_1_Tst_0>
1

> <Ready_Biodeg>
0.0

$$$$
Row1530
  Mrv171c012251911052D          

 24 25  0  0  0  0            999 V2000
    1.8798    2.2215    0.0000 N   0  0  0  0  0  0  0  0  0  0  0  0
    1.1653    1.8090    0.0000 C   0  0  0  0  0  0  0  0  0  0  0  0
    0.4508    2.2215    0.0000 C   0  0  0  0  0  0  0  0  0  0  0  0
    0.4508    3.0465    0.0000 Cl  0  0  0  0  0  0  0  0  0  0  0  0
   -0.2636    1.8090    0.0000 C   0  0  0  0  0  0  0  0  0  0  0  0
   -0.2636    0.9840    0.0000 C   0  0  0  0  0  0  0  0  0  0  0  0
   -0.9781    0.5715    0.0000 C   0  0  0  0  0  0  0  0  0  0  0  0
   -1.6926    0.9840    0.0000 C   0  0  0  0  0  0  0  0  0  0  0  0
   -2.4071    0.5715    0.0000 C   0  0  0  0  0  0  0  0  0  0  0  0
   -3.1215    0.9840    0.0000 Cl  0  0  0  0  0  0  0  0  0  0  0  0
   -2.4071   -0.2535    0.0000 C   0  0  0  0  0  0  0  0  0  0  0  0
   -3.1215   -0.6660    0.0000 N   0  0  0  0  0  0  0  0  0  0  0  0
   -1.6926   -0.6660    0.0000 C   0  0  0  0  0  0  0  0  0  0  0  0
   -1.6926   -1.4910    0.0000 S   0  0  0  0  0  0  0  0  0  0  0  0
   -1.6926   -2.3160    0.0000 O   0  0  0  0  0  0  0  0  0  0  0  0
   -0.8676   -1.4910    0.0000 O   0  0  0  0  0  0  0  0  0  0  0  0
   -2.5176   -1.4910    0.0000 O   0  0  0  0  0  0  0  0  0  0  0  0
   -0.9781   -0.2535    0.0000 C   0  0  0  0  0  0  0  0  0  0  0  0
    0.4508    0.5715    0.0000 C   0  0  0  0  0  0  0  0  0  0  0  0
    1.1653    0.9840    0.0000 C   0  0  0  0  0  0  0  0  0  0  0  0
    1.8798    0.5715    0.0000 S   0  0  0  0  0  0  0  0  0  0  0  0
    2.5942    0.1590    0.0000 O   0  0  0  0  0  0  0  0  0  0  0  0
    2.2923    1.2859    0.0000 O   0  0  0  0  0  0  0  0  0  0  0  0
    1.4673   -0.1430    0.0000 O   0  0  0  0  0  0  0  0  0  0  0  0
  1  2  1  0  0  0  0
  3  2  2  0  0  0  0
  3  4  1  0  0  0  0
  5  3  1  0  0  0  0
  6  5  2  0  0  0  0
  6  7  1  0  0  0  0
  8  7  2  0  0  0  0
  9  8  1  0  0  0  0
  9 10  1  0  0  0  0
 11  9  2  0  0  0  0
 11 12  1  0  0  0  0
 13 11  1  0  0  0  0
 13 14  1  0  0  0  0
 14 15  1  0  0  0  0
 14 16  2  0  0  0  0
 14 17  2  0  0  0  0
 18 13  2  0  0  0  0
  7 18  1  0  0  0  0
 19  6  1  0  0  0  0
 20 19  2  0  0  0  0
  2 20  1  0  0  0  0
 20 21  1  0  0  0  0
 21 22  1  0  0  0  0
 21 23  2  0  0  0  0
 21 24  2  0  0  0  0
M  END
> <ChemID>
202048

> <CAS>
123251-96-7

> <Original_SMILES>
Nc1c(cc(cc1Cl)-c1cc(Cl)c(N)c(c1)S(O)(=O)=O)S(O)(=O)=O

> <preferred_name>


> <dsstox_substance_id>


> <dsstox_compound_id>


> <qc_level>


> <Canonical_QSARr>
NC1C(=CC(=CC=1Cl)C1=CC(Cl)=C(N)C(=C1)S(O)(=O)=O)S(O)(=O)=O

> <InChI_Code_QSARr>
InChI=1S/C12H10Cl2N2O6S2/c13-7-1-5(3-9(11(7)15)23(17,18)19)6-2-8(14)12(16)10(4-6)24(20,21)22/h1-4H,15-16H2,(H,17,18,19)(H,20,21,22)

> <InChI Key_QSARr>
PEIQLVWMYVLUAU-UHFFFAOYSA-N

> <Salt_Solvent>


> <Salt_Solvent_ID>
0

> <MPID>
101565

> <Tr_1_Tst_0>
1

> <Ready_Biodeg>
0.0

$$$$
Row1531
  Mrv171c012251911052D          

 24 25  0  0  0  0            999 V2000
    1.4289   -1.6500    0.0000 N   0  0  0  0  0  0  0  0  0  0  0  0
    1.4289   -2.4750    0.0000 C   0  0  0  0  0  0  0  0  0  0  0  0
    2.1434   -2.8875    0.0000 C   0  0  0  0  0  0  0  0  0  0  0  0
    2.1434   -3.7125    0.0000 C   0  0  0  0  0  0  0  0  0  0  0  0
    1.4289   -4.1250    0.0000 C   0  0  0  0  0  0  0  0  0  0  0  0
    1.4289   -4.9500    0.0000 C   0  0  0  0  0  0  0  0  0  0  0  0
    2.1434   -5.3625    0.0000 C   0  0  0  0  0  0  0  0  0  0  0  0
    2.1434   -6.1875    0.0000 C   0  0  0  0  0  0  0  0  0  0  0  0
    2.8579   -6.6000    0.0000 C   0  0  0  0  0  0  0  0  0  0  0  0
    2.8579   -7.4250    0.0000 C   0  0  0  0  0  0  0  0  0  0  0  0
    2.1434   -7.8375    0.0000 C   0  0  0  0  0  0  0  0  0  0  0  0
    2.1434   -8.6625    0.0000 N   0  0  0  0  0  0  0  0  0  0  0  0
    1.4289   -7.4250    0.0000 C   0  0  0  0  0  0  0  0  0  0  0  0
    1.4289   -6.6000    0.0000 C   0  0  0  0  0  0  0  0  0  0  0  0
    0.7145   -6.1875    0.0000 S   0  0  0  0  0  0  0  0  0  0  0  0
    0.0000   -5.7750    0.0000 O   0  0  0  0  0  0  0  0  0  0  0  0
    1.1270   -5.4730    0.0000 O   0  0  0  0  0  0  0  0  0  0  0  0
    0.3020   -6.9020    0.0000 O   0  0  0  0  0  0  0  0  0  0  0  0
    0.7145   -3.7125    0.0000 C   0  0  0  0  0  0  0  0  0  0  0  0
    0.7145   -2.8875    0.0000 C   0  0  0  0  0  0  0  0  0  0  0  0
    2.8579   -4.1250    0.0000 S   0  0  0  0  0  0  0  0  0  0  0  0
    3.5724   -4.5375    0.0000 O   0  0  0  0  0  0  0  0  0  0  0  0
    2.4454   -4.8395    0.0000 O   0  0  0  0  0  0  0  0  0  0  0  0
    3.2704   -3.4105    0.0000 O   0  0  0  0  0  0  0  0  0  0  0  0
  1  2  1  0  0  0  0
  2  3  1  0  0  0  0
  3  4  2  0  0  0  0
  4  5  1  0  0  0  0
  6  5  1  4  0  0  0
  6  7  2  0  0  0  0
  7  8  1  0  0  0  0
  8  9  2  0  0  0  0
  9 10  1  0  0  0  0
 10 11  2  0  0  0  0
 11 12  1  0  0  0  0
 11 13  1  0  0  0  0
 13 14  2  0  0  0  0
  8 14  1  0  0  0  0
 14 15  1  0  0  0  0
 15 16  1  0  0  0  0
 15 17  2  0  0  0  0
 15 18  2  0  0  0  0
  5 19  2  0  0  0  0
 19 20  1  0  0  0  0
  2 20  2  0  0  0  0
  4 21  1  0  0  0  0
 21 22  1  0  0  0  0
 21 23  2  0  0  0  0
 21 24  2  0  0  0  0
M  END
> <ChemID>
202055

> <CAS>
28096-93-7

> <Original_SMILES>
Nc1cc(c(cc1)/C=C/c1ccc(N)cc1S(O)(=O)=O)S(O)(=O)=O

> <preferred_name>
4,4'-Diamino-2,2'-stilbenedisulfonic acid

> <dsstox_substance_id>
DTXSID60182371

> <dsstox_compound_id>
DTXCID70104862

> <qc_level>


> <Canonical_QSARr>
NC1C=C(C(C=CC2=CC=C(N)C=C2S(O)(=O)=O)=CC=1)S(O)(=O)=O

> <InChI_Code_QSARr>
InChI=1S/C14H14N2O6S2/c15-11-5-3-9(13(7-11)23(17,18)19)1-2-10-4-6-12(16)8-14(10)24(20,21)22/h1-8H,15-16H2,(H,17,18,19)(H,20,21,22)

> <InChI Key_QSARr>
REJHVSOVQBJEBF-UHFFFAOYSA-N

> <Salt_Solvent>


> <Salt_Solvent_ID>
0

> <MPID>
101566

> <Tr_1_Tst_0>
1

> <Ready_Biodeg>
0.0

$$$$
Row1532
  Mrv171c012251911052D          

 17 18  0  0  0  0            999 V2000
   -1.2608   -2.3069    0.0000 N   0  0  0  0  0  0  0  0  0  0  0  0
   -0.5464   -1.8944    0.0000 C   0  0  0  0  0  0  0  0  0  0  0  0
    0.1681   -2.3069    0.0000 C   0  0  0  0  0  0  0  0  0  0  0  0
    0.8826   -1.8944    0.0000 C   0  0  0  0  0  0  0  0  0  0  0  0
    0.8826   -1.0694    0.0000 C   0  0  0  0  0  0  0  0  0  0  0  0
    0.1681   -0.6569    0.0000 C   0  0  0  0  0  0  0  0  0  0  0  0
    0.1681    0.1681    0.0000 S   0  0  0  0  0  0  0  0  0  0  0  0
    0.9931    0.1681    0.0000 O   0  0  0  0  0  0  0  0  0  0  0  0
   -0.6569    0.1681    0.0000 O   0  0  0  0  0  0  0  0  0  0  0  0
    0.1681    0.9931    0.0000 C   0  0  0  0  0  0  0  0  0  0  0  0
    0.8826    1.4056    0.0000 C   0  0  0  0  0  0  0  0  0  0  0  0
    0.8826    2.2306    0.0000 C   0  0  0  0  0  0  0  0  0  0  0  0
    0.1681    2.6431    0.0000 C   0  0  0  0  0  0  0  0  0  0  0  0
   -0.5464    2.2306    0.0000 C   0  0  0  0  0  0  0  0  0  0  0  0
   -1.2608    2.6431    0.0000 N   0  0  0  0  0  0  0  0  0  0  0  0
   -0.5464    1.4056    0.0000 C   0  0  0  0  0  0  0  0  0  0  0  0
   -0.5464   -1.0694    0.0000 C   0  0  0  0  0  0  0  0  0  0  0  0
  1  2  1  0  0  0  0
  3  2  2  0  0  0  0
  4  3  1  0  0  0  0
  5  4  2  0  0  0  0
  6  5  1  0  0  0  0
  6  7  1  0  0  0  0
  7  8  2  0  0  0  0
  7  9  2  0  0  0  0
  7 10  1  0  0  0  0
 11 10  2  0  0  0  0
 12 11  1  0  0  0  0
 13 12  2  0  0  0  0
 14 13  1  0  0  0  0
 14 15  1  0  0  0  0
 16 14  2  0  0  0  0
 10 16  1  0  0  0  0
 17  6  2  0  0  0  0
  2 17  1  0  0  0  0
M  END
> <ChemID>
202056

> <CAS>
599-61-1

> <Original_SMILES>
Nc1cc(ccc1)S(=O)(=O)c1cc(N)ccc1

> <preferred_name>
3,3'-Sulphonyldianiline

> <dsstox_substance_id>
DTXSID3044962

> <dsstox_compound_id>
DTXCID1024962

> <qc_level>


> <Canonical_QSARr>
NC1C=C(C=CC=1)S(=O)(=O)C1C=C(N)C=CC=1

> <InChI_Code_QSARr>
InChI=1S/C12H12N2O2S/c13-9-3-1-5-11(7-9)17(15,16)12-6-2-4-10(14)8-12/h1-8H,13-14H2

> <InChI Key_QSARr>
LJGHYPLBDBRCRZ-UHFFFAOYSA-N

> <Salt_Solvent>


> <Salt_Solvent_ID>
0

> <MPID>
101567

> <Tr_1_Tst_0>
1

> <Ready_Biodeg>
0.0

$$$$
Row1533
  Mrv171c012251911052D          

 19 20  0  0  0  0            999 V2000
    0.6769   -2.4347    0.0000 N   0  0  0  0  0  0  0  0  0  0  0  0
    0.6769   -1.6097    0.0000 C   0  0  0  0  0  0  0  0  0  0  0  0
   -0.0376   -1.1972    0.0000 C   0  0  0  0  0  0  0  0  0  0  0  0
   -0.0376   -0.3722    0.0000 C   0  0  0  0  0  0  0  0  0  0  0  0
    0.6769    0.0403    0.0000 C   0  0  0  0  0  0  0  0  0  0  0  0
    0.6769    0.8653    0.0000 C   0  0  0  0  0  0  0  0  0  0  0  0
   -0.0376    1.2778    0.0000 C   0  0  0  0  0  0  0  0  0  0  0  0
   -0.0376    2.1028    0.0000 C   0  0  0  0  0  0  0  0  0  0  0  0
   -0.7521    2.5153    0.0000 C   0  0  0  0  0  0  0  0  0  0  0  0
   -1.4665    2.1028    0.0000 C   0  0  0  0  0  0  0  0  0  0  0  0
   -2.1810    2.5153    0.0000 N   0  0  0  0  0  0  0  0  0  0  0  0
   -1.4665    1.2778    0.0000 C   0  0  0  0  0  0  0  0  0  0  0  0
   -2.1810    0.8653    0.0000 Cl  0  0  0  0  0  0  0  0  0  0  0  0
   -0.7521    0.8653    0.0000 C   0  0  0  0  0  0  0  0  0  0  0  0
   -0.7521    0.0403    0.0000 Cl  0  0  0  0  0  0  0  0  0  0  0  0
    1.3913   -0.3722    0.0000 C   0  0  0  0  0  0  0  0  0  0  0  0
    2.1058    0.0403    0.0000 Cl  0  0  0  0  0  0  0  0  0  0  0  0
    1.3913   -1.1972    0.0000 C   0  0  0  0  0  0  0  0  0  0  0  0
    2.1058   -1.6097    0.0000 Cl  0  0  0  0  0  0  0  0  0  0  0  0
  1  2  1  0  0  0  0
  3  2  2  0  0  0  0
  4  3  1  0  0  0  0
  5  4  2  0  0  0  0
  5  6  1  0  0  0  0
  6  7  1  0  0  0  0
  8  7  2  0  0  0  0
  9  8  1  0  0  0  0
 10  9  2  0  0  0  0
 10 11  1  0  0  0  0
 12 10  1  0  0  0  0
 12 13  1  0  0  0  0
 14 12  2  0  0  0  0
  7 14  1  0  0  0  0
 14 15  1  0  0  0  0
 16  5  1  0  0  0  0
 16 17  1  0  0  0  0
 18 16  2  0  0  0  0
  2 18  1  0  0  0  0
 18 19  1  0  0  0  0
M  END
> <ChemID>
202063

> <CAS>
42240-73-3

> <Original_SMILES>
Nc1ccc(Cc2ccc(N)c(Cl)c2Cl)c(Cl)c1Cl

> <preferred_name>
Benzenamine, 4,4'-methylenebis(2,3-dichloro-

> <dsstox_substance_id>
DTXSID10195077

> <dsstox_compound_id>
DTXCID20117568

> <qc_level>


> <Canonical_QSARr>
NC1=CC=C(CC2=CC=C(N)C(Cl)=C2Cl)C(Cl)=C1Cl

> <InChI_Code_QSARr>
InChI=1S/C13H10Cl4N2/c14-10-6(1-3-8(18)12(10)16)5-7-2-4-9(19)13(17)11(7)15/h1-4H,5,18-19H2

> <InChI Key_QSARr>
PPUHQXZSLCCTAN-UHFFFAOYSA-N

> <Salt_Solvent>


> <Salt_Solvent_ID>
0

> <MPID>
101568

> <Tr_1_Tst_0>
1

> <Ready_Biodeg>
0.0

$$$$
Row1534
  Mrv171c012251911052D          

 11 11  0  0  0  0            999 V2000
    0.3000   -2.1750    0.0000 N   0  0  0  0  0  0  0  0  0  0  0  0
    0.3000   -1.3500    0.0000 C   0  0  0  0  0  0  0  0  0  0  0  0
    1.0145   -0.9375    0.0000 C   0  0  0  0  0  0  0  0  0  0  0  0
    1.0145   -0.1125    0.0000 C   0  0  0  0  0  0  0  0  0  0  0  0
    0.3000    0.3000    0.0000 C   0  0  0  0  0  0  0  0  0  0  0  0
    0.3000    1.1250    0.0000 S   0  0  0  0  0  0  0  0  0  0  0  0
    0.3000    1.9500    0.0000 N   0  0  0  0  0  0  0  0  0  0  0  0
    1.1250    1.1250    0.0000 O   0  0  0  0  0  0  0  0  0  0  0  0
   -0.5250    1.1250    0.0000 O   0  0  0  0  0  0  0  0  0  0  0  0
   -0.4145   -0.1125    0.0000 C   0  0  0  0  0  0  0  0  0  0  0  0
   -0.4145   -0.9375    0.0000 C   0  0  0  0  0  0  0  0  0  0  0  0
  1  2  1  0  0  0  0
  3  2  2  0  0  0  0
  4  3  1  0  0  0  0
  5  4  2  0  0  0  0
  5  6  1  0  0  0  0
  6  7  1  0  0  0  0
  6  8  2  0  0  0  0
  6  9  2  0  0  0  0
 10  5  1  0  0  0  0
 11 10  2  0  0  0  0
  2 11  1  0  0  0  0
M  END
> <ChemID>
202072

> <CAS>
63-74-1

> <Original_SMILES>
Nc1ccc(cc1)S(N)(=O)=O

> <preferred_name>
Sulfanilamide

> <dsstox_substance_id>
DTXSID4023622

> <dsstox_compound_id>
DTXCID903622

> <qc_level>


> <Canonical_QSARr>
NC1C=CC(=CC=1)S(N)(=O)=O

> <InChI_Code_QSARr>
InChI=1S/C6H8N2O2S/c7-5-1-3-6(4-2-5)11(8,9)10/h1-4H,7H2,(H2,8,9,10)

> <InChI Key_QSARr>
FDDDEECHVMSUSB-UHFFFAOYSA-N

> <Salt_Solvent>


> <Salt_Solvent_ID>
0

> <MPID>
101569

> <Tr_1_Tst_0>
1

> <Ready_Biodeg>
0.0

$$$$
Row1535
  Mrv171c012251911052D          

 12 12  0  0  0  0            999 V2000
   -0.4168   -1.0656    0.0000 N   0  0  0  0  0  0  0  0  0  0  0  0
   -0.4168   -0.2406    0.0000 C   0  0  0  0  0  0  0  0  0  0  0  0
    0.2977    0.1719    0.0000 C   0  0  0  0  0  0  0  0  0  0  0  0
    0.2977    0.9969    0.0000 C   0  0  0  0  0  0  0  0  0  0  0  0
   -0.4168    1.4094    0.0000 C   0  0  0  0  0  0  0  0  0  0  0  0
   -0.4168    2.2344    0.0000 N   0  3  0  0  0  0  0  0  0  0  0  0
   -1.1313    2.6469    0.0000 O   0  5  0  0  0  0  0  0  0  0  0  0
    0.2977    2.6469    0.0000 O   0  0  0  0  0  0  0  0  0  0  0  0
   -1.1313    0.9969    0.0000 C   0  0  0  0  0  0  0  0  0  0  0  0
   -1.1313    0.1719    0.0000 C   0  0  0  0  0  0  0  0  0  0  0  0
   -1.8457   -0.2406    0.0000 C   0  0  0  0  0  0  0  0  0  0  0  0
   -2.5602   -0.6531    0.0000 N   0  0  0  0  0  0  0  0  0  0  0  0
  1  2  1  0  0  0  0
  3  2  2  0  0  0  0
  4  3  1  0  0  0  0
  5  4  2  0  0  0  0
  5  6  1  0  0  0  0
  6  7  1  0  0  0  0
  6  8  2  0  0  0  0
  9  5  1  0  0  0  0
 10  9  2  0  0  0  0
  2 10  1  0  0  0  0
 10 11  1  0  0  0  0
 11 12  3  0  0  0  0
M  CHG  2   6   1   7  -1
M  END
> <ChemID>
202074

> <CAS>
17420-30-3

> <Original_SMILES>
Nc1ccc(cc1C#N)[N+]([O-])=O

> <preferred_name>
2-Amino-5-nitrobenzonitrile

> <dsstox_substance_id>
DTXSID0038839

> <dsstox_compound_id>
DTXCID8018839

> <qc_level>


> <Canonical_QSARr>
NC1=CC=C(C=C1C#N)[N+]([O-])=O

> <InChI_Code_QSARr>
InChI=1S/C7H5N3O2/c8-4-5-3-6(10(11)12)1-2-7(5)9/h1-3H,9H2

> <InChI Key_QSARr>
MGCGMYPNXAFGFA-UHFFFAOYSA-N

> <Salt_Solvent>


> <Salt_Solvent_ID>
0

> <MPID>
101570

> <Tr_1_Tst_0>
0

> <Ready_Biodeg>
0.0

$$$$
Row1536
  Mrv171c012251911052D          

 11 11  0  0  0  0            999 V2000
   -0.9951   -1.8201    0.0000 N   0  0  0  0  0  0  0  0  0  0  0  0
   -0.9951   -0.9951    0.0000 C   0  0  0  0  0  0  0  0  0  0  0  0
   -0.2806   -0.5826    0.0000 C   0  0  0  0  0  0  0  0  0  0  0  0
   -0.2806    0.2424    0.0000 C   0  0  0  0  0  0  0  0  0  0  0  0
   -0.9951    0.6549    0.0000 C   0  0  0  0  0  0  0  0  0  0  0  0
   -0.9951    1.4799    0.0000 N   0  3  0  0  0  0  0  0  0  0  0  0
   -1.7096    1.8924    0.0000 O   0  5  0  0  0  0  0  0  0  0  0  0
   -0.2806    1.8924    0.0000 O   0  0  0  0  0  0  0  0  0  0  0  0
   -1.7096    0.2424    0.0000 C   0  0  0  0  0  0  0  0  0  0  0  0
   -1.7096   -0.5826    0.0000 C   0  0  0  0  0  0  0  0  0  0  0  0
   -2.4240   -0.9951    0.0000 Cl  0  0  0  0  0  0  0  0  0  0  0  0
  1  2  1  0  0  0  0
  3  2  2  0  0  0  0
  4  3  1  0  0  0  0
  5  4  2  0  0  0  0
  5  6  1  0  0  0  0
  6  7  1  0  0  0  0
  6  8  2  0  0  0  0
  9  5  1  0  0  0  0
 10  9  2  0  0  0  0
  2 10  1  0  0  0  0
 10 11  1  0  0  0  0
M  CHG  2   6   1   7  -1
M  END
> <ChemID>
202076

> <CAS>
121-87-9

> <Original_SMILES>
Nc1ccc(cc1Cl)[N+]([O-])=O

> <preferred_name>
2-Chloro-4-nitroaniline

> <dsstox_substance_id>
DTXSID4021973

> <dsstox_compound_id>
DTXCID201973

> <qc_level>


> <Canonical_QSARr>
NC1=CC=C(C=C1Cl)[N+]([O-])=O

> <InChI_Code_QSARr>
InChI=1S/C6H5ClN2O2/c7-5-3-4(9(10)11)1-2-6(5)8/h1-3H,8H2

> <InChI Key_QSARr>
LOCWBQIWHWIRGN-UHFFFAOYSA-N

> <Salt_Solvent>


> <Salt_Solvent_ID>
0

> <MPID>
101571

> <Tr_1_Tst_0>
1

> <Ready_Biodeg>
0.0

$$$$
Row1537
  Mrv171c012251911052D          

 13 13  0  0  0  0            999 V2000
   -0.2198   -1.7769    0.0000 N   0  0  0  0  0  0  0  0  0  0  0  0
   -0.2198   -0.9519    0.0000 C   0  0  0  0  0  0  0  0  0  0  0  0
    0.4946   -0.5394    0.0000 C   0  0  0  0  0  0  0  0  0  0  0  0
    0.4946    0.2856    0.0000 C   0  0  0  0  0  0  0  0  0  0  0  0
   -0.2198    0.6981    0.0000 C   0  0  0  0  0  0  0  0  0  0  0  0
   -0.2198    1.5231    0.0000 N   0  3  0  0  0  0  0  0  0  0  0  0
   -0.9343    1.9356    0.0000 O   0  5  0  0  0  0  0  0  0  0  0  0
    0.4946    1.9356    0.0000 O   0  0  0  0  0  0  0  0  0  0  0  0
   -0.9343    0.2856    0.0000 C   0  0  0  0  0  0  0  0  0  0  0  0
   -0.9343   -0.5394    0.0000 C   0  0  0  0  0  0  0  0  0  0  0  0
   -1.6488   -0.9519    0.0000 N   0  3  0  0  0  0  0  0  0  0  0  0
   -1.6488   -1.7769    0.0000 O   0  5  0  0  0  0  0  0  0  0  0  0
   -2.3633   -0.5394    0.0000 O   0  0  0  0  0  0  0  0  0  0  0  0
  1  2  1  0  0  0  0
  3  2  2  0  0  0  0
  4  3  1  0  0  0  0
  5  4  2  0  0  0  0
  5  6  1  0  0  0  0
  6  7  1  0  0  0  0
  6  8  2  0  0  0  0
  9  5  1  0  0  0  0
 10  9  2  0  0  0  0
  2 10  1  0  0  0  0
 10 11  1  0  0  0  0
 11 12  1  0  0  0  0
 11 13  2  0  0  0  0
M  CHG  4   6   1   7  -1  11   1  12  -1
M  END
> <ChemID>
202077

> <CAS>
97-02-9

> <Original_SMILES>
Nc1ccc(cc1[N+]([O-])=O)[N+]([O-])=O

> <preferred_name>
2,4-Dinitroaniline

> <dsstox_substance_id>
DTXSID1021823

> <dsstox_compound_id>
DTXCID501823

> <qc_level>


> <Canonical_QSARr>
NC1=CC=C(C=C1[N+]([O-])=O)[N+]([O-])=O

> <InChI_Code_QSARr>
InChI=1S/C6H5N3O4/c7-5-2-1-4(8(10)11)3-6(5)9(12)13/h1-3H,7H2

> <InChI Key_QSARr>
LXQOQPGNCGEELI-UHFFFAOYSA-N

> <Salt_Solvent>


> <Salt_Solvent_ID>
0

> <MPID>
101572

> <Tr_1_Tst_0>
1

> <Ready_Biodeg>
0.0

$$$$
Row1538
  Mrv171c012251911052D          

 19 20  0  0  0  0            999 V2000
   -1.7674    1.0638    0.0000 N   0  0  0  0  0  0  0  0  0  0  0  0
   -1.0529    0.6513    0.0000 C   0  0  0  0  0  0  0  0  0  0  0  0
   -1.0529   -0.1737    0.0000 C   0  0  0  0  0  0  0  0  0  0  0  0
   -0.3385   -0.5862    0.0000 C   0  0  0  0  0  0  0  0  0  0  0  0
    0.3760   -0.1737    0.0000 C   0  0  0  0  0  0  0  0  0  0  0  0
    0.3760    0.6513    0.0000 C   0  0  0  0  0  0  0  0  0  0  0  0
    1.0905    1.0638    0.0000 C   0  0  0  0  0  0  0  0  0  0  0  0
    1.8049    0.6513    0.0000 C   0  0  0  0  0  0  0  0  0  0  0  0
    1.8049   -0.1737    0.0000 C   0  0  0  0  0  0  0  0  0  0  0  0
    1.0905   -0.5862    0.0000 C   0  0  0  0  0  0  0  0  0  0  0  0
    1.0905   -1.4112    0.0000 S   0  0  0  0  0  0  0  0  0  0  0  0
    1.0905   -2.2362    0.0000 O   0  0  0  0  0  0  0  0  0  0  0  0
    0.2655   -1.4112    0.0000 O   0  0  0  0  0  0  0  0  0  0  0  0
    1.9155   -1.4112    0.0000 O   0  0  0  0  0  0  0  0  0  0  0  0
   -0.3385    1.0638    0.0000 C   0  0  0  0  0  0  0  0  0  0  0  0
   -0.3385    1.8888    0.0000 S   0  0  0  0  0  0  0  0  0  0  0  0
   -0.3385    2.7138    0.0000 O   0  0  0  0  0  0  0  0  0  0  0  0
   -1.1635    1.8888    0.0000 O   0  0  0  0  0  0  0  0  0  0  0  0
    0.4865    1.8888    0.0000 O   0  0  0  0  0  0  0  0  0  0  0  0
  1  2  1  0  0  0  0
  3  2  1  0  0  0  0
  4  3  2  0  0  0  0
  5  4  1  0  0  0  0
  5  6  2  0  0  0  0
  6  7  1  0  0  0  0
  7  8  2  0  0  0  0
  8  9  1  0  0  0  0
  9 10  2  0  0  0  0
 10  5  1  0  0  0  0
 10 11  1  0  0  0  0
 11 12  1  0  0  0  0
 11 13  2  0  0  0  0
 11 14  2  0  0  0  0
 15  6  1  0  0  0  0
  2 15  2  0  0  0  0
 15 16  1  0  0  0  0
 16 17  1  0  0  0  0
 16 18  2  0  0  0  0
 16 19  2  0  0  0  0
M  END
> <ChemID>
202078

> <CAS>
117-62-4

> <Original_SMILES>
Nc1ccc2c(cccc2S(O)(=O)=O)c1S(O)(=O)=O

> <preferred_name>
2-Aminonaphthalene-1,5-disulfonic acid

> <dsstox_substance_id>
DTXSID0045040

> <dsstox_compound_id>
DTXCID8025040

> <qc_level>


> <Canonical_QSARr>
NC1C=CC2C(=CC=CC=2C=1S(O)(=O)=O)S(O)(=O)=O

> <InChI_Code_QSARr>
InChI=1S/C10H9NO6S2/c11-8-5-4-6-7(10(8)19(15,16)17)2-1-3-9(6)18(12,13)14/h1-5H,11H2,(H,12,13,14)(H,15,16,17)

> <InChI Key_QSARr>
YAIKCRUPEVOINQ-UHFFFAOYSA-N

> <Salt_Solvent>


> <Salt_Solvent_ID>
0

> <MPID>
101573

> <Tr_1_Tst_0>
0

> <Ready_Biodeg>
0.0

$$$$
Row1539
  Mrv171c012251911052D          

 19 20  0  0  0  0            999 V2000
   -0.4136   -3.9296    0.0000 Cl  0  0  0  0  0  0  0  0  0  0  0  0
   -0.4136   -3.1046    0.0000 C   0  0  0  0  0  0  0  0  0  0  0  0
    0.3008   -2.6921    0.0000 C   0  0  0  0  0  0  0  0  0  0  0  0
    0.3008   -1.8671    0.0000 C   0  0  0  0  0  0  0  0  0  0  0  0
   -0.4136   -1.4546    0.0000 C   0  0  0  0  0  0  0  0  0  0  0  0
   -0.4136   -0.6296    0.0000 N   0  0  0  0  0  0  0  0  0  0  0  0
   -1.1281   -0.2171    0.0000 C   0  0  0  0  0  0  0  0  0  0  0  0
   -1.8426   -0.6296    0.0000 O   0  0  0  0  0  0  0  0  0  0  0  0
   -1.1281    0.6079    0.0000 N   0  0  0  0  0  0  0  0  0  0  0  0
   -1.8426    1.0204    0.0000 C   0  0  0  0  0  0  0  0  0  0  0  0
   -1.8426    1.8454    0.0000 C   0  0  0  0  0  0  0  0  0  0  0  0
   -2.5571    2.2579    0.0000 C   0  0  0  0  0  0  0  0  0  0  0  0
   -3.2715    1.8454    0.0000 C   0  0  0  0  0  0  0  0  0  0  0  0
   -3.9860    2.2579    0.0000 Cl  0  0  0  0  0  0  0  0  0  0  0  0
   -3.2715    1.0204    0.0000 C   0  0  0  0  0  0  0  0  0  0  0  0
   -3.9860    0.6079    0.0000 Cl  0  0  0  0  0  0  0  0  0  0  0  0
   -2.5571    0.6079    0.0000 C   0  0  0  0  0  0  0  0  0  0  0  0
   -1.1281   -1.8671    0.0000 C   0  0  0  0  0  0  0  0  0  0  0  0
   -1.1281   -2.6921    0.0000 C   0  0  0  0  0  0  0  0  0  0  0  0
  1  2  1  0  0  0  0
  3  2  2  0  0  0  0
  4  3  1  0  0  0  0
  5  4  2  0  0  0  0
  5  6  1  0  0  0  0
  6  7  1  0  0  0  0
  7  8  2  0  0  0  0
  7  9  1  0  0  0  0
  9 10  1  0  0  0  0
 11 10  2  0  0  0  0
 12 11  1  0  0  0  0
 13 12  2  0  0  0  0
 13 14  1  0  0  0  0
 15 13  1  0  0  0  0
 15 16  1  0  0  0  0
 17 15  2  0  0  0  0
 10 17  1  0  0  0  0
 18  5  1  0  0  0  0
 19 18  2  0  0  0  0
  2 19  1  0  0  0  0
M  END
> <ChemID>
202090

> <CAS>
101-20-2

> <Original_SMILES>
O=C(Nc1cc(Cl)c(Cl)cc1)Nc1ccc(Cl)cc1

> <preferred_name>
Triclocarban

> <dsstox_substance_id>
DTXSID4026214

> <dsstox_compound_id>
DTXCID906214

> <qc_level>


> <Canonical_QSARr>
O=C(NC1C=C(Cl)C(Cl)=CC=1)NC1C=CC(Cl)=CC=1

> <InChI_Code_QSARr>
InChI=1S/C13H9Cl3N2O/c14-8-1-3-9(4-2-8)17-13(19)18-10-5-6-11(15)12(16)7-10/h1-7H,(H2,17,18,19)

> <InChI Key_QSARr>
ICUTUKXCWQYESQ-UHFFFAOYSA-N

> <Salt_Solvent>


> <Salt_Solvent_ID>
0

> <MPID>
101574

> <Tr_1_Tst_0>
0

> <Ready_Biodeg>
0.0

$$$$
Row1540
  Mrv171c012251911052D          

 25 28  0  0  0  0            999 V2000
    7.0163    2.7296    0.0000 O   0  0  0  0  0  0  0  0  0  0  0  0
    6.3019    2.3171    0.0000 C   0  0  0  0  0  0  0  0  0  0  0  0
    6.3019    1.4921    0.0000 N   0  0  0  0  0  0  0  0  0  0  0  0
    5.5874    1.0796    0.0000 C   0  0  0  0  0  0  0  0  0  0  0  0
    4.8729    1.4921    0.0000 C   0  0  0  0  0  0  0  0  0  0  0  0
    4.1585    1.0796    0.0000 C   0  0  0  0  0  0  0  0  0  0  0  0
    4.1585    0.2546    0.0000 C   0  0  0  0  0  0  0  0  0  0  0  0
    3.4440   -0.1579    0.0000 C   0  0  0  0  0  0  0  0  0  0  0  0
    3.4440   -0.9829    0.0000 C   0  0  0  0  0  0  0  0  0  0  0  0
    2.7295   -1.3954    0.0000 C   0  0  0  0  0  0  0  0  0  0  0  0
    2.7295   -2.2204    0.0000 C   0  0  0  0  0  0  0  0  0  0  0  0
    3.4440   -2.6329    0.0000 C   0  0  0  0  0  0  0  0  0  0  0  0
    3.4440   -3.4579    0.0000 N   0  0  0  0  0  0  0  0  0  0  0  0
    4.1585   -3.8704    0.0000 C   0  0  0  0  0  0  0  0  0  0  0  0
    4.8729   -3.4579    0.0000 O   0  0  0  0  0  0  0  0  0  0  0  0
    4.1585   -4.6954    0.0000 N   0  0  0  0  0  0  0  0  0  0  0  0
    3.7460   -5.4099    0.0000 C   0  0  0  0  0  0  0  0  0  0  0  0
    4.5710   -5.4099    0.0000 C   0  0  0  0  0  0  0  0  0  0  0  0
    4.1585   -2.2204    0.0000 C   0  0  0  0  0  0  0  0  0  0  0  0
    4.1585   -1.3954    0.0000 C   0  0  0  0  0  0  0  0  0  0  0  0
    4.8729   -0.1579    0.0000 C   0  0  0  0  0  0  0  0  0  0  0  0
    5.5874    0.2546    0.0000 C   0  0  0  0  0  0  0  0  0  0  0  0
    5.5874    2.7296    0.0000 N   0  0  0  0  0  0  0  0  0  0  0  0
    5.1749    3.4440    0.0000 C   0  0  0  0  0  0  0  0  0  0  0  0
    4.7624    2.7296    0.0000 C   0  0  0  0  0  0  0  0  0  0  0  0
  1  2  2  0  0  0  0
  2  3  1  0  0  0  0
  3  4  1  0  0  0  0
  5  4  2  0  0  0  0
  6  5  1  0  0  0  0
  7  6  2  0  0  0  0
  7  8  1  0  0  0  0
  8  9  1  0  0  0  0
 10  9  2  0  0  0  0
 11 10  1  0  0  0  0
 12 11  2  0  0  0  0
 12 13  1  0  0  0  0
 13 14  1  0  0  0  0
 14 15  2  0  0  0  0
 14 16  1  0  0  0  0
 17 16  1  0  0  0  0
 18 17  1  0  0  0  0
 16 18  1  0  0  0  0
 19 12  1  0  0  0  0
 20 19  2  0  0  0  0
  9 20  1  0  0  0  0
 21  7  1  0  0  0  0
 22 21  2  0  0  0  0
  4 22  1  0  0  0  0
  2 23  1  0  0  0  0
 24 23  1  0  0  0  0
 25 24  1  0  0  0  0
 23 25  1  0  0  0  0
M  END
> <ChemID>
202091

> <CAS>
7417-99-4

> <Original_SMILES>
O=C(Nc1ccc(Cc2ccc(cc2)NC(=O)N2CC2)cc1)N1CC1

> <preferred_name>
1-Aziridinecarboxamide, N,N'-(methylenedi-4,1-phenylene)bis-

> <dsstox_substance_id>
DTXSID1064665

> <dsstox_compound_id>
DTXCID5047617

> <qc_level>


> <Canonical_QSARr>
O=C(NC1C=CC(CC2C=CC(=CC=2)NC(=O)N2CC2)=CC=1)N1CC1

> <InChI_Code_QSARr>
InChI=1S/C19H20N4O2/c24-18(22-9-10-22)20-16-5-1-14(2-6-16)13-15-3-7-17(8-4-15)21-19(25)23-11-12-23/h1-8H,9-13H2,(H,20,24)(H,21,25)

> <InChI Key_QSARr>
XECQDYXJWMHGBI-UHFFFAOYSA-N

> <Salt_Solvent>


> <Salt_Solvent_ID>
0

> <MPID>
101575

> <Tr_1_Tst_0>
1

> <Ready_Biodeg>
0.0

$$$$
Row1541
  Mrv171c012251911052D          

 16 17  0  0  0  0            999 V2000
    2.3626    0.8872    0.0000 O   0  0  0  0  0  0  0  0  0  0  0  0
    1.6481    0.4747    0.0000 C   0  0  0  0  0  0  0  0  0  0  0  0
    1.6481   -0.3503    0.0000 O   0  0  0  0  0  0  0  0  0  0  0  0
    2.3626   -0.7628    0.0000 C   0  0  0  0  0  0  0  0  0  0  0  0
    2.3626   -1.5878    0.0000 C   0  0  0  0  0  0  0  0  0  0  0  0
    1.6481   -2.0003    0.0000 C   0  0  0  0  0  0  0  0  0  0  0  0
    1.6481   -2.8253    0.0000 C   0  0  0  0  0  0  0  0  0  0  0  0
    2.3626   -3.2378    0.0000 C   0  0  0  0  0  0  0  0  0  0  0  0
    3.0771   -2.8253    0.0000 C   0  0  0  0  0  0  0  0  0  0  0  0
    3.0771   -2.0003    0.0000 C   0  0  0  0  0  0  0  0  0  0  0  0
    0.9337    0.8872    0.0000 C   0  0  0  0  0  0  0  0  0  0  0  0
    0.9337    1.7122    0.0000 C   0  0  0  0  0  0  0  0  0  0  0  0
    0.2192    2.1247    0.0000 C   0  0  0  0  0  0  0  0  0  0  0  0
   -0.4953    1.7122    0.0000 C   0  0  0  0  0  0  0  0  0  0  0  0
   -0.4953    0.8872    0.0000 C   0  0  0  0  0  0  0  0  0  0  0  0
    0.2192    0.4747    0.0000 C   0  0  0  0  0  0  0  0  0  0  0  0
  1  2  2  0  0  0  0
  2  3  1  0  0  0  0
  3  4  1  0  0  0  0
  4  5  1  0  0  0  0
  6  5  2  0  0  0  0
  7  6  1  0  0  0  0
  8  7  2  0  0  0  0
  9  8  1  0  0  0  0
 10  9  2  0  0  0  0
  5 10  1  0  0  0  0
  2 11  1  0  0  0  0
 12 11  2  0  0  0  0
 13 12  1  0  0  0  0
 14 13  2  0  0  0  0
 15 14  1  0  0  0  0
 16 15  2  0  0  0  0
 11 16  1  0  0  0  0
M  END
> <ChemID>
202093

> <CAS>
120-51-4

> <Original_SMILES>
O=C(OCc1ccccc1)c1ccccc1

> <preferred_name>
Benzyl benzoate

> <dsstox_substance_id>
DTXSID8029153

> <dsstox_compound_id>
DTXCID809153

> <qc_level>


> <Canonical_QSARr>
O=C(OCC1C=CC=CC=1)C1C=CC=CC=1

> <InChI_Code_QSARr>
InChI=1S/C14H12O2/c15-14(13-9-5-2-6-10-13)16-11-12-7-3-1-4-8-12/h1-10H,11H2

> <InChI Key_QSARr>
SESFRYSPDFLNCH-UHFFFAOYSA-N

> <Salt_Solvent>


> <Salt_Solvent_ID>
0

> <MPID>
101576

> <Tr_1_Tst_0>
1

> <Ready_Biodeg>
1.0

$$$$
Row1542
  Mrv171c012251911052D          

 18 19  0  0  0  0            999 V2000
   -1.7393   -0.5250    0.0000 Cl  0  0  0  0  0  0  0  0  0  0  0  0
   -0.9143   -0.5250    0.0000 C   0  0  0  0  0  0  0  0  0  0  0  0
   -0.5018   -1.2395    0.0000 Cl  0  0  0  0  0  0  0  0  0  0  0  0
   -0.5018    0.1895    0.0000 C   0  0  0  0  0  0  0  0  0  0  0  0
    0.2126   -0.2230    0.0000 Cl  0  0  0  0  0  0  0  0  0  0  0  0
   -1.2163    0.6020    0.0000 Cl  0  0  0  0  0  0  0  0  0  0  0  0
   -0.0893    0.9040    0.0000 S   0  0  0  0  0  0  0  0  0  0  0  0
    0.7357    0.9040    0.0000 N   0  0  0  0  0  0  0  0  0  0  0  0
    1.2206    1.5714    0.0000 C   0  0  0  0  0  0  0  0  0  0  0  0
    0.9656    2.3560    0.0000 O   0  0  0  0  0  0  0  0  0  0  0  0
    2.0052    1.3165    0.0000 C   0  0  0  0  0  0  0  0  0  0  0  0
    2.7197    1.7290    0.0000 C   0  0  0  0  0  0  0  0  0  0  0  0
    3.4341    1.3165    0.0000 C   0  0  0  0  0  0  0  0  0  0  0  0
    3.4341    0.4915    0.0000 C   0  0  0  0  0  0  0  0  0  0  0  0
    2.7197    0.0790    0.0000 C   0  0  0  0  0  0  0  0  0  0  0  0
    2.0052    0.4915    0.0000 C   0  0  0  0  0  0  0  0  0  0  0  0
    1.2206    0.2365    0.0000 C   0  0  0  0  0  0  0  0  0  0  0  0
    0.9656   -0.5481    0.0000 O   0  0  0  0  0  0  0  0  0  0  0  0
  1  2  1  0  0  0  0
  2  3  1  0  0  0  0
  2  4  1  0  0  0  0
  4  5  1  0  0  0  0
  4  6  1  0  0  0  0
  4  7  1  0  0  0  0
  7  8  1  0  0  0  0
  9  8  1  0  0  0  0
  9 10  2  0  0  0  0
 11  9  1  0  0  0  0
 11 12  1  0  0  0  0
 12 13  1  0  0  0  0
 13 14  2  0  0  0  0
 14 15  1  0  0  0  0
 15 16  1  0  0  0  0
 16 11  1  0  0  0  0
 17 16  1  0  0  0  0
  8 17  1  0  0  0  0
 17 18  2  0  0  0  0
M  END
> <ChemID>
202098

> <CAS>
2425-06-1

> <Original_SMILES>
O=C1C2CC=CCC2C(=O)N1SC(Cl)(Cl)C(Cl)Cl

> <preferred_name>
cis-Captafol

> <dsstox_substance_id>
DTXSID4020242

> <dsstox_compound_id>
DTXCID60242

> <qc_level>


> <Canonical_QSARr>
O=C1C2CC=CCC2C(=O)N1SC(Cl)(Cl)C(Cl)Cl

> <InChI_Code_QSARr>
InChI=1S/C10H9Cl4NO2S/c11-9(12)10(13,14)18-15-7(16)5-3-1-2-4-6(5)8(15)17/h1-2,5-6,9H,3-4H2

> <InChI Key_QSARr>
JHRWWRDRBPCWTF-UHFFFAOYSA-N

> <Salt_Solvent>


> <Salt_Solvent_ID>
0

> <MPID>
101577

> <Tr_1_Tst_0>
0

> <Ready_Biodeg>
0.0

$$$$
Row1543
  Mrv171c012251911052D          

 27 30  0  0  0  0            999 V2000
    2.6238   -1.1325    0.0000 O   0  0  0  0  0  0  0  0  0  0  0  0
    3.1087   -0.4651    0.0000 C   0  0  0  0  0  0  0  0  0  0  0  0
    3.9337   -0.4651    0.0000 C   0  0  0  0  0  0  0  0  0  0  0  0
    4.1887    0.3195    0.0000 C   0  0  0  0  0  0  0  0  0  0  0  0
    3.5212    0.8045    0.0000 C   0  0  0  0  0  0  0  0  0  0  0  0
    3.5212    1.6295    0.0000 O   0  0  0  0  0  0  0  0  0  0  0  0
    2.8538    0.3195    0.0000 N   0  0  0  0  0  0  0  0  0  0  0  0
    2.0692    0.5745    0.0000 C   0  0  0  0  0  0  0  0  0  0  0  0
    1.8977    1.3815    0.0000 C   0  0  0  0  0  0  0  0  0  0  0  0
    1.1130    1.6364    0.0000 C   0  0  0  0  0  0  0  0  0  0  0  0
    0.4999    1.0844    0.0000 C   0  0  0  0  0  0  0  0  0  0  0  0
   -0.2847    1.3393    0.0000 C   0  0  0  0  0  0  0  0  0  0  0  0
   -0.8978    0.7873    0.0000 C   0  0  0  0  0  0  0  0  0  0  0  0
   -1.6824    1.0422    0.0000 C   0  0  0  0  0  0  0  0  0  0  0  0
   -2.2955    0.4902    0.0000 C   0  0  0  0  0  0  0  0  0  0  0  0
   -2.1240   -0.3168    0.0000 C   0  0  0  0  0  0  0  0  0  0  0  0
   -2.7371   -0.8688    0.0000 N   0  0  0  0  0  0  0  0  0  0  0  0
   -3.5440   -0.6973    0.0000 C   0  0  0  0  0  0  0  0  0  0  0  0
   -3.8796    0.0564    0.0000 O   0  0  0  0  0  0  0  0  0  0  0  0
   -3.9565   -1.4118    0.0000 C   0  0  0  0  0  0  0  0  0  0  0  0
   -3.4045   -2.0249    0.0000 C   0  0  0  0  0  0  0  0  0  0  0  0
   -2.6508   -1.6893    0.0000 C   0  0  0  0  0  0  0  0  0  0  0  0
   -1.9363   -2.1018    0.0000 O   0  0  0  0  0  0  0  0  0  0  0  0
   -1.3393   -0.5717    0.0000 C   0  0  0  0  0  0  0  0  0  0  0  0
   -0.7262   -0.0197    0.0000 C   0  0  0  0  0  0  0  0  0  0  0  0
    0.6715    0.2774    0.0000 C   0  0  0  0  0  0  0  0  0  0  0  0
    1.4561    0.0224    0.0000 C   0  0  0  0  0  0  0  0  0  0  0  0
  1  2  2  0  0  0  0
  3  2  1  0  0  0  0
  4  3  2  0  0  0  0
  5  4  1  0  0  0  0
  5  6  2  0  0  0  0
  7  5  1  0  0  0  0
  2  7  1  0  0  0  0
  7  8  1  0  0  0  0
  9  8  2  0  0  0  0
 10  9  1  0  0  0  0
 11 10  2  0  0  0  0
 11 12  1  0  0  0  0
 12 13  1  0  0  0  0
 14 13  2  0  0  0  0
 15 14  1  0  0  0  0
 16 15  2  0  0  0  0
 16 17  1  0  0  0  0
 18 17  1  0  0  0  0
 18 19  2  0  0  0  0
 20 18  1  0  0  0  0
 21 20  2  0  0  0  0
 22 21  1  0  0  0  0
 17 22  1  0  0  0  0
 22 23  2  0  0  0  0
 24 16  1  0  0  0  0
 25 24  2  0  0  0  0
 13 25  1  0  0  0  0
 26 11  1  0  0  0  0
 27 26  2  0  0  0  0
  8 27  1  0  0  0  0
M  END
> <ChemID>
202099

> <CAS>
13676-54-5

> <Original_SMILES>
O=C1C=CC(=O)N1c1ccc(Cc2ccc(cc2)N2C(=O)C=CC2=O)cc1

> <preferred_name>
Bismaleimide

> <dsstox_substance_id>
DTXSID8044381

> <dsstox_compound_id>
DTXCID6024381

> <qc_level>


> <Canonical_QSARr>
O=C1C=CC(=O)N1C1C=CC(CC2C=CC(=CC=2)N2C(=O)C=CC2=O)=CC=1

> <InChI_Code_QSARr>
InChI=1S/C21H14N2O4/c24-18-9-10-19(25)22(18)16-5-1-14(2-6-16)13-15-3-7-17(8-4-15)23-20(26)11-12-21(23)27/h1-12H,13H2

> <InChI Key_QSARr>
XQUPVDVFXZDTLT-UHFFFAOYSA-N

> <Salt_Solvent>


> <Salt_Solvent_ID>
0

> <MPID>
101578

> <Tr_1_Tst_0>
1

> <Ready_Biodeg>
0.0

$$$$
Row1544
  Mrv171c012251911052D          

 12 13  0  0  0  0            999 V2000
   -0.4763   -1.2375    0.0000 O   0  0  0  0  0  0  0  0  0  0  0  0
   -0.4763   -0.4125    0.0000 C   0  0  0  0  0  0  0  0  0  0  0  0
   -1.1908    0.0000    0.0000 C   0  0  0  0  0  0  0  0  0  0  0  0
   -1.1908    0.8250    0.0000 C   0  0  0  0  0  0  0  0  0  0  0  0
   -0.4763    1.2375    0.0000 C   0  0  0  0  0  0  0  0  0  0  0  0
   -0.4763    2.0625    0.0000 O   0  0  0  0  0  0  0  0  0  0  0  0
    0.2382    0.8250    0.0000 C   0  0  0  0  0  0  0  0  0  0  0  0
    0.9527    1.2375    0.0000 C   0  0  0  0  0  0  0  0  0  0  0  0
    1.6671    0.8250    0.0000 C   0  0  0  0  0  0  0  0  0  0  0  0
    1.6671    0.0000    0.0000 C   0  0  0  0  0  0  0  0  0  0  0  0
    0.9527   -0.4125    0.0000 C   0  0  0  0  0  0  0  0  0  0  0  0
    0.2382    0.0000    0.0000 C   0  0  0  0  0  0  0  0  0  0  0  0
  1  2  2  0  0  0  0
  3  2  1  0  0  0  0
  4  3  2  0  0  0  0
  5  4  1  0  0  0  0
  5  6  2  0  0  0  0
  7  5  1  0  0  0  0
  7  8  2  0  0  0  0
  8  9  1  0  0  0  0
  9 10  2  0  0  0  0
 10 11  1  0  0  0  0
 11 12  2  0  0  0  0
  2 12  1  0  0  0  0
 12  7  1  0  0  0  0
M  END
> <ChemID>
202102

> <CAS>
130-15-4

> <Original_SMILES>
O=C1C=CC(=O)c2ccccc12

> <preferred_name>
1,4-Naphthoquinone

> <dsstox_substance_id>
DTXSID5040704

> <dsstox_compound_id>
DTXCID3020704

> <qc_level>


> <Canonical_QSARr>
O=C1C=CC(=O)C2=CC=CC=C12

> <InChI_Code_QSARr>
InChI=1S/C10H6O2/c11-9-5-6-10(12)8-4-2-1-3-7(8)9/h1-6H

> <InChI Key_QSARr>
FRASJONUBLZVQX-UHFFFAOYSA-N

> <Salt_Solvent>


> <Salt_Solvent_ID>
0

> <MPID>
101579

> <Tr_1_Tst_0>
0

> <Ready_Biodeg>
0.0

$$$$
Row1545
  Mrv171c012251911052D          

 21 24  0  0  0  0            999 V2000
   -1.9824   -0.1336    0.0000 O   0  0  0  0  0  0  0  0  0  0  0  0
   -1.9824    0.6914    0.0000 C   0  0  0  0  0  0  0  0  0  0  0  0
   -1.2679    1.1039    0.0000 N   0  0  0  0  0  0  0  0  0  0  0  0
   -0.5535    0.6914    0.0000 C   0  0  0  0  0  0  0  0  0  0  0  0
   -0.5535   -0.1336    0.0000 C   0  0  0  0  0  0  0  0  0  0  0  0
   -0.9660   -0.8481    0.0000 C   0  0  0  0  0  0  0  0  0  0  0  0
   -0.1410   -0.8481    0.0000 O   0  0  0  0  0  0  0  0  0  0  0  0
   -1.2679    1.9289    0.0000 C   0  0  0  0  0  0  0  0  0  0  0  0
   -0.5535    2.3414    0.0000 O   0  0  0  0  0  0  0  0  0  0  0  0
   -1.9824    2.3414    0.0000 N   0  0  0  0  0  0  0  0  0  0  0  0
   -1.9824    3.1664    0.0000 C   0  0  0  0  0  0  0  0  0  0  0  0
   -2.6969    3.5789    0.0000 C   0  0  0  0  0  0  0  0  0  0  0  0
   -3.1094    4.2933    0.0000 C   0  0  0  0  0  0  0  0  0  0  0  0
   -3.5219    3.5789    0.0000 O   0  0  0  0  0  0  0  0  0  0  0  0
   -2.6969    1.9289    0.0000 C   0  0  0  0  0  0  0  0  0  0  0  0
   -3.4114    2.3414    0.0000 O   0  0  0  0  0  0  0  0  0  0  0  0
   -2.6969    1.1039    0.0000 N   0  0  0  0  0  0  0  0  0  0  0  0
   -3.4114    0.6914    0.0000 C   0  0  0  0  0  0  0  0  0  0  0  0
   -3.4114   -0.1336    0.0000 C   0  0  0  0  0  0  0  0  0  0  0  0
   -3.8239   -0.8481    0.0000 C   0  0  0  0  0  0  0  0  0  0  0  0
   -2.9989   -0.8481    0.0000 O   0  0  0  0  0  0  0  0  0  0  0  0
  1  2  2  0  0  0  0
  3  2  1  0  0  0  0
  3  4  1  0  0  0  0
  4  5  1  0  0  0  0
  6  5  1  0  0  0  0
  7  6  1  0  0  0  0
  5  7  1  0  0  0  0
  8  3  1  0  0  0  0
  8  9  2  0  0  0  0
 10  8  1  0  0  0  0
 10 11  1  0  0  0  0
 11 12  1  0  0  0  0
 13 12  1  0  0  0  0
 14 13  1  0  0  0  0
 12 14  1  0  0  0  0
 15 10  1  0  0  0  0
 15 16  2  0  0  0  0
 17 15  1  0  0  0  0
  2 17  1  0  0  0  0
 17 18  1  0  0  0  0
 18 19  1  0  0  0  0
 20 19  1  0  0  0  0
 21 20  1  0  0  0  0
 19 21  1  0  0  0  0
M  END
> <ChemID>
202112

> <CAS>
2451-62-9

> <Original_SMILES>
O=C1N(CC2CO2)C(=O)N(CC2CO2)C(=O)N1CC1CO1

> <preferred_name>
Triglycidyl isocyanurate

> <dsstox_substance_id>
DTXSID4026262

> <dsstox_compound_id>
DTXCID606262

> <qc_level>


> <Canonical_QSARr>
O=C1N(CC2CO2)C(=O)N(CC2CO2)C(=O)N1CC1CO1

> <InChI_Code_QSARr>
InChI=1S/C12H15N3O6/c16-10-13(1-7-4-19-7)11(17)15(3-9-6-21-9)12(18)14(10)2-8-5-20-8/h7-9H,1-6H2

> <InChI Key_QSARr>
OUPZKGBUJRBPGC-UHFFFAOYSA-N

> <Salt_Solvent>


> <Salt_Solvent_ID>
0

> <MPID>
101580

> <Tr_1_Tst_0>
1

> <Ready_Biodeg>
0.0

$$$$
Row1546
  Mrv171c012251911052D          

 19 21  0  0  0  0            999 V2000
   -0.9337   -2.9157    0.0000 O   0  0  0  0  0  0  0  0  0  0  0  0
   -0.4488   -2.2483    0.0000 C   0  0  0  0  0  0  0  0  0  0  0  0
    0.3762   -2.2483    0.0000 N   0  0  0  0  0  0  0  0  0  0  0  0
    0.6312   -1.4637    0.0000 C   0  0  0  0  0  0  0  0  0  0  0  0
    1.4158   -1.2087    0.0000 O   0  0  0  0  0  0  0  0  0  0  0  0
   -0.0363   -0.9787    0.0000 C   0  0  0  0  0  0  0  0  0  0  0  0
    0.5158   -0.3656    0.0000 C   0  0  0  0  0  0  0  0  0  0  0  0
    1.3227   -0.5372    0.0000 C   0  0  0  0  0  0  0  0  0  0  0  0
    1.8748    0.0759    0.0000 C   0  0  0  0  0  0  0  0  0  0  0  0
    1.6198    0.8606    0.0000 C   0  0  0  0  0  0  0  0  0  0  0  0
    0.8128    1.0321    0.0000 C   0  0  0  0  0  0  0  0  0  0  0  0
    0.2608    0.4190    0.0000 C   0  0  0  0  0  0  0  0  0  0  0  0
   -0.5883   -0.3656    0.0000 C   0  0  0  0  0  0  0  0  0  0  0  0
   -0.3334    0.4190    0.0000 C   0  0  0  0  0  0  0  0  0  0  0  0
   -0.8854    1.0321    0.0000 C   0  0  0  0  0  0  0  0  0  0  0  0
   -1.6924    0.8606    0.0000 C   0  0  0  0  0  0  0  0  0  0  0  0
   -1.9473    0.0759    0.0000 C   0  0  0  0  0  0  0  0  0  0  0  0
   -1.3953   -0.5372    0.0000 C   0  0  0  0  0  0  0  0  0  0  0  0
   -0.7037   -1.4637    0.0000 N   0  0  0  0  0  0  0  0  0  0  0  0
  1  2  2  0  0  0  0
  3  2  1  0  0  0  0
  4  3  1  0  0  0  0
  4  5  2  0  0  0  0
  6  4  1  0  0  0  0
  6  7  1  0  0  0  0
  8  7  2  0  0  0  0
  9  8  1  0  0  0  0
 10  9  2  0  0  0  0
 11 10  1  0  0  0  0
 12 11  2  0  0  0  0
  7 12  1  0  0  0  0
  6 13  1  0  0  0  0
 14 13  2  0  0  0  0
 15 14  1  0  0  0  0
 16 15  2  0  0  0  0
 17 16  1  0  0  0  0
 18 17  2  0  0  0  0
 13 18  1  0  0  0  0
 19  6  1  0  0  0  0
  2 19  1  0  0  0  0
M  END
> <ChemID>
202113

> <CAS>
57-41-0

> <Original_SMILES>
O=C1NC(=O)C(N1)(c1ccccc1)c1ccccc1

> <preferred_name>
5,5-Diphenylhydantoin

> <dsstox_substance_id>
DTXSID8020541

> <dsstox_compound_id>
DTXCID60541

> <qc_level>


> <Canonical_QSARr>
O=C1NC(=O)C(N1)(C1C=CC=CC=1)C1C=CC=CC=1

> <InChI_Code_QSARr>
InChI=1S/C15H12N2O2/c18-13-15(17-14(19)16-13,11-7-3-1-4-8-11)12-9-5-2-6-10-12/h1-10H,(H2,16,17,18,19)

> <InChI Key_QSARr>
CXOFVDLJLONNDW-UHFFFAOYSA-N

> <Salt_Solvent>


> <Salt_Solvent_ID>
0

> <MPID>
101581

> <Tr_1_Tst_0>
1

> <Ready_Biodeg>
0.0

$$$$
Row1547
  Mrv171c012251911052D          

 11 12  0  0  0  0            999 V2000
   -1.0395   -1.8646    0.0000 O   0  0  0  0  0  0  0  0  0  0  0  0
   -0.7846   -1.0799    0.0000 C   0  0  0  0  0  0  0  0  0  0  0  0
   -1.2695   -0.4125    0.0000 N   0  0  0  0  0  0  0  0  0  0  0  0
   -0.7846    0.2549    0.0000 C   0  0  0  0  0  0  0  0  0  0  0  0
   -1.0395    1.0396    0.0000 O   0  0  0  0  0  0  0  0  0  0  0  0
    0.0000   -0.0000    0.0000 C   0  0  0  0  0  0  0  0  0  0  0  0
    0.7145    0.4125    0.0000 C   0  0  0  0  0  0  0  0  0  0  0  0
    1.4290   -0.0000    0.0000 C   0  0  0  0  0  0  0  0  0  0  0  0
    1.4290   -0.8250    0.0000 C   0  0  0  0  0  0  0  0  0  0  0  0
    0.7145   -1.2375    0.0000 C   0  0  0  0  0  0  0  0  0  0  0  0
    0.0000   -0.8250    0.0000 C   0  0  0  0  0  0  0  0  0  0  0  0
  1  2  2  0  0  0  0
  3  2  1  0  0  0  0
  4  3  1  0  0  0  0
  4  5  2  0  0  0  0
  6  4  1  0  0  0  0
  6  7  2  0  0  0  0
  7  8  1  0  0  0  0
  8  9  2  0  0  0  0
  9 10  1  0  0  0  0
 10 11  2  0  0  0  0
  2 11  1  0  0  0  0
 11  6  1  0  0  0  0
M  END
> <ChemID>
202117

> <CAS>
85-41-6

> <Original_SMILES>
O=C1NC(=O)c2ccccc12

> <preferred_name>
Phthalimide

> <dsstox_substance_id>
DTXSID3026514

> <dsstox_compound_id>
DTXCID506514

> <qc_level>


> <Canonical_QSARr>
O=C1NC(=O)C2=CC=CC=C12

> <InChI_Code_QSARr>
InChI=1S/C8H5NO2/c10-7-5-3-1-2-4-6(5)8(11)9-7/h1-4H,(H,9,10,11)

> <InChI Key_QSARr>
XKJCHHZQLQNZHY-UHFFFAOYSA-N

> <Salt_Solvent>


> <Salt_Solvent_ID>
0

> <MPID>
101582

> <Tr_1_Tst_0>
1

> <Ready_Biodeg>
1.0

$$$$
Row1548
  Mrv171c012251911052D          

  7  7  0  0  0  0            999 V2000
   -0.6056   -0.4787    0.0000 O   0  0  0  0  0  0  0  0  0  0  0  0
   -0.1207    0.1887    0.0000 C   0  0  0  0  0  0  0  0  0  0  0  0
    0.7043    0.1887    0.0000 C   0  0  0  0  0  0  0  0  0  0  0  0
    0.9592    0.9733    0.0000 N   0  0  0  0  0  0  0  0  0  0  0  0
    0.2918    1.4582    0.0000 C   0  0  0  0  0  0  0  0  0  0  0  0
    0.2918    2.2832    0.0000 O   0  0  0  0  0  0  0  0  0  0  0  0
   -0.3757    0.9733    0.0000 N   0  0  0  0  0  0  0  0  0  0  0  0
  1  2  2  0  0  0  0
  3  2  1  0  0  0  0
  4  3  1  0  0  0  0
  5  4  1  0  0  0  0
  5  6  2  0  0  0  0
  7  5  1  0  0  0  0
  2  7  1  0  0  0  0
M  END
> <ChemID>
202118

> <CAS>
461-72-3

> <Original_SMILES>
O=C1NCC(=O)N1

> <preferred_name>
Hydantoin

> <dsstox_substance_id>
DTXSID1052111

> <dsstox_compound_id>
DTXCID3030680

> <qc_level>


> <Canonical_QSARr>
O=C1NCC(=O)N1

> <InChI_Code_QSARr>
InChI=1S/C3H4N2O2/c6-2-1-4-3(7)5-2/h1H2,(H2,4,5,6,7)

> <InChI Key_QSARr>
WJRBRSLFGCUECM-UHFFFAOYSA-N

> <Salt_Solvent>


> <Salt_Solvent_ID>
0

> <MPID>
101583

> <Tr_1_Tst_0>
0

> <Ready_Biodeg>
1.0

$$$$
Row1549
  Mrv171c012251911052D          

 10 11  0  0  0  0            999 V2000
   -0.9114   -1.0958    0.0000 O   0  0  0  0  0  0  0  0  0  0  0  0
   -0.6564   -0.3112    0.0000 C   0  0  0  0  0  0  0  0  0  0  0  0
   -1.1414    0.3563    0.0000 N   0  0  0  0  0  0  0  0  0  0  0  0
   -0.6564    1.0237    0.0000 S   0  0  0  0  0  0  0  0  0  0  0  0
    0.1282    0.7688    0.0000 C   0  0  0  0  0  0  0  0  0  0  0  0
    0.8427    1.1813    0.0000 C   0  0  0  0  0  0  0  0  0  0  0  0
    1.5571    0.7688    0.0000 C   0  0  0  0  0  0  0  0  0  0  0  0
    1.5571   -0.0562    0.0000 C   0  0  0  0  0  0  0  0  0  0  0  0
    0.8427   -0.4687    0.0000 C   0  0  0  0  0  0  0  0  0  0  0  0
    0.1282   -0.0562    0.0000 C   0  0  0  0  0  0  0  0  0  0  0  0
  1  2  2  0  0  0  0
  3  2  1  0  0  0  0
  4  3  1  0  0  0  0
  5  4  1  0  0  0  0
  5  6  2  0  0  0  0
  6  7  1  0  0  0  0
  7  8  2  0  0  0  0
  8  9  1  0  0  0  0
  9 10  2  0  0  0  0
  2 10  1  0  0  0  0
 10  5  1  0  0  0  0
M  END
> <ChemID>
202119

> <CAS>
2634-33-5

> <Original_SMILES>
O=C1NSc2ccccc21

> <preferred_name>
1,2-Benzisothiazolin-3-one

> <dsstox_substance_id>
DTXSID5032523

> <dsstox_compound_id>
DTXCID3012523

> <qc_level>


> <Canonical_QSARr>
O=C1NSC2=CC=CC=C21

> <InChI_Code_QSARr>
InChI=1S/C7H5NOS/c9-7-5-3-1-2-4-6(5)10-8-7/h1-4H,(H,8,9)

> <InChI Key_QSARr>
DMSMPAJRVJJAGA-UHFFFAOYSA-N

> <Salt_Solvent>


> <Salt_Solvent_ID>
0

> <MPID>
101584

> <Tr_1_Tst_0>
1

> <Ready_Biodeg>
0.0

$$$$
Row1550
  Mrv171c012251911052D          

 15 16  0  0  0  0            999 V2000
    2.1434   -0.4125    0.0000 Cl  0  0  0  0  0  0  0  0  0  0  0  0
    1.4290   -0.0000    0.0000 C   0  0  0  0  0  0  0  0  0  0  0  0
    1.4290    0.8250    0.0000 C   0  0  0  0  0  0  0  0  0  0  0  0
    2.1434    1.2375    0.0000 Cl  0  0  0  0  0  0  0  0  0  0  0  0
    0.7145    1.2375    0.0000 C   0  0  0  0  0  0  0  0  0  0  0  0
    0.7145    2.0625    0.0000 Cl  0  0  0  0  0  0  0  0  0  0  0  0
    0.0000    0.8250    0.0000 C   0  0  0  0  0  0  0  0  0  0  0  0
   -0.7846    1.0799    0.0000 C   0  0  0  0  0  0  0  0  0  0  0  0
   -1.0396    1.8646    0.0000 O   0  0  0  0  0  0  0  0  0  0  0  0
   -1.2695    0.4125    0.0000 O   0  0  0  0  0  0  0  0  0  0  0  0
   -0.7846   -0.2549    0.0000 C   0  0  0  0  0  0  0  0  0  0  0  0
   -1.0396   -1.0396    0.0000 O   0  0  0  0  0  0  0  0  0  0  0  0
    0.0000    0.0000    0.0000 C   0  0  0  0  0  0  0  0  0  0  0  0
    0.7145   -0.4125    0.0000 C   0  0  0  0  0  0  0  0  0  0  0  0
    0.7145   -1.2375    0.0000 Cl  0  0  0  0  0  0  0  0  0  0  0  0
  1  2  1  0  0  0  0
  3  2  2  0  0  0  0
  3  4  1  0  0  0  0
  5  3  1  0  0  0  0
  5  6  1  0  0  0  0
  7  5  2  0  0  0  0
  7  8  1  0  0  0  0
  8  9  2  0  0  0  0
  8 10  1  0  0  0  0
 10 11  1  0  0  0  0
 11 12  2  0  0  0  0
 11 13  1  0  0  0  0
 13  7  1  0  0  0  0
 14 13  2  0  0  0  0
  2 14  1  0  0  0  0
 14 15  1  0  0  0  0
M  END
> <ChemID>
202121

> <CAS>
117-08-8

> <Original_SMILES>
O=C1OC(=O)c2c1c(Cl)c(Cl)c(Cl)c2Cl

> <preferred_name>
Tetrachlorophthalic anhydride

> <dsstox_substance_id>
DTXSID7026102

> <dsstox_compound_id>
DTXCID606102

> <qc_level>


> <Canonical_QSARr>
O=C1OC(=O)C2C1=C(Cl)C(Cl)=C(Cl)C=2Cl

> <InChI_Code_QSARr>
InChI=1S/C8Cl4O3/c9-3-1-2(8(14)15-7(1)13)4(10)6(12)5(3)11

> <InChI Key_QSARr>
AUHHYELHRWCWEZ-UHFFFAOYSA-N

> <Salt_Solvent>


> <Salt_Solvent_ID>
0

> <MPID>
101585

> <Tr_1_Tst_0>
1

> <Ready_Biodeg>
0.0

$$$$
Row1551
  Mrv171c012251911052D          

 16 18  0  0  0  0            999 V2000
   -2.1665   -2.1665    0.0000 O   0  0  0  0  0  0  0  0  0  0  0  0
   -1.9116   -1.3819    0.0000 C   0  0  0  0  0  0  0  0  0  0  0  0
   -2.3965   -0.7145    0.0000 O   0  0  0  0  0  0  0  0  0  0  0  0
   -1.9116   -0.0470    0.0000 C   0  0  0  0  0  0  0  0  0  0  0  0
   -2.1665    0.7376    0.0000 O   0  0  0  0  0  0  0  0  0  0  0  0
   -1.1270   -0.3020    0.0000 C   0  0  0  0  0  0  0  0  0  0  0  0
   -0.4125    0.1105    0.0000 C   0  0  0  0  0  0  0  0  0  0  0  0
    0.3020   -0.3020    0.0000 C   0  0  0  0  0  0  0  0  0  0  0  0
    1.0866   -0.0470    0.0000 C   0  0  0  0  0  0  0  0  0  0  0  0
    1.3415    0.7376    0.0000 O   0  0  0  0  0  0  0  0  0  0  0  0
    1.5715   -0.7145    0.0000 O   0  0  0  0  0  0  0  0  0  0  0  0
    1.0866   -1.3819    0.0000 C   0  0  0  0  0  0  0  0  0  0  0  0
    1.3415   -2.1665    0.0000 O   0  0  0  0  0  0  0  0  0  0  0  0
    0.3020   -1.1270    0.0000 C   0  0  0  0  0  0  0  0  0  0  0  0
   -0.4125   -1.5395    0.0000 C   0  0  0  0  0  0  0  0  0  0  0  0
   -1.1270   -1.1270    0.0000 C   0  0  0  0  0  0  0  0  0  0  0  0
  1  2  2  0  0  0  0
  3  2  1  0  0  0  0
  4  3  1  0  0  0  0
  4  5  2  0  0  0  0
  6  4  1  0  0  0  0
  6  7  2  0  0  0  0
  7  8  1  0  0  0  0
  9  8  1  0  0  0  0
  9 10  2  0  0  0  0
 11  9  1  0  0  0  0
 12 11  1  0  0  0  0
 12 13  2  0  0  0  0
 14 12  1  0  0  0  0
  8 14  2  0  0  0  0
 14 15  1  0  0  0  0
 15 16  2  0  0  0  0
  2 16  1  0  0  0  0
 16  6  1  0  0  0  0
M  END
> <ChemID>
202122

> <CAS>
89-32-7

> <Original_SMILES>
O=C1OC(=O)c2cc3c(cc12)C(=O)OC3=O

> <preferred_name>
1H,3H-Benzo(1,2-c:4,5-c')difuran-1,3,5,7-tetrone

> <dsstox_substance_id>
DTXSID1026536

> <dsstox_compound_id>
DTXCID906536

> <qc_level>


> <Canonical_QSARr>
O=C1OC(=O)C2=CC3=C(C=C12)C(=O)OC3=O

> <InChI_Code_QSARr>
InChI=1S/C10H2O6/c11-7-3-1-4-6(10(14)16-8(4)12)2-5(3)9(13)15-7/h1-2H

> <InChI Key_QSARr>
ANSXAPJVJOKRDJ-UHFFFAOYSA-N

> <Salt_Solvent>


> <Salt_Solvent_ID>
0

> <MPID>
101586

> <Tr_1_Tst_0>
0

> <Ready_Biodeg>
1.0

$$$$
Row1552
  Mrv171c012251911052D          

 10 11  0  0  0  0            999 V2000
   -1.0396   -1.8646    0.0000 O   0  0  0  0  0  0  0  0  0  0  0  0
   -0.7846   -1.0799    0.0000 C   0  0  0  0  0  0  0  0  0  0  0  0
   -1.2695   -0.4125    0.0000 O   0  0  0  0  0  0  0  0  0  0  0  0
   -0.7846    0.2549    0.0000 C   0  0  0  0  0  0  0  0  0  0  0  0
   -0.0000    0.0000    0.0000 C   0  0  0  0  0  0  0  0  0  0  0  0
    0.7145    0.4125    0.0000 C   0  0  0  0  0  0  0  0  0  0  0  0
    1.4289    0.0000    0.0000 C   0  0  0  0  0  0  0  0  0  0  0  0
    1.4289   -0.8250    0.0000 C   0  0  0  0  0  0  0  0  0  0  0  0
    0.7145   -1.2375    0.0000 C   0  0  0  0  0  0  0  0  0  0  0  0
   -0.0000   -0.8250    0.0000 C   0  0  0  0  0  0  0  0  0  0  0  0
  1  2  2  0  0  0  0
  3  2  1  0  0  0  0
  4  3  1  0  0  0  0
  5  4  1  0  0  0  0
  5  6  2  0  0  0  0
  6  7  1  0  0  0  0
  7  8  2  0  0  0  0
  8  9  1  0  0  0  0
  9 10  2  0  0  0  0
  2 10  1  0  0  0  0
 10  5  1  0  0  0  0
M  END
> <ChemID>
202125

> <CAS>
87-41-2

> <Original_SMILES>
O=C1OCc2ccccc21

> <preferred_name>
Phthalide

> <dsstox_substance_id>
DTXSID0052594

> <dsstox_compound_id>
DTXCID7031167

> <qc_level>


> <Canonical_QSARr>
O=C1OCC2=CC=CC=C21

> <InChI_Code_QSARr>
InChI=1S/C8H6O2/c9-8-7-4-2-1-3-6(7)5-10-8/h1-4H,5H2

> <InChI Key_QSARr>
WNZQDUSMALZDQF-UHFFFAOYSA-N

> <Salt_Solvent>


> <Salt_Solvent_ID>
0

> <MPID>
101587

> <Tr_1_Tst_0>
1

> <Ready_Biodeg>
1.0

$$$$
Row1553
  Mrv171c012251911052D          

 16 17  0  0  0  0            999 V2000
   -2.9969   -1.4396    0.0000 F   0  0  0  0  0  0  0  0  0  0  0  0
   -2.5844   -0.7251    0.0000 C   0  0  0  0  0  0  0  0  0  0  0  0
   -1.8699   -1.1376    0.0000 Cl  0  0  0  0  0  0  0  0  0  0  0  0
   -3.2989   -0.3126    0.0000 Cl  0  0  0  0  0  0  0  0  0  0  0  0
   -2.1719   -0.0106    0.0000 S   0  0  0  0  0  0  0  0  0  0  0  0
   -1.3469   -0.0106    0.0000 N   0  0  0  0  0  0  0  0  0  0  0  0
   -0.8620    0.6568    0.0000 C   0  0  0  0  0  0  0  0  0  0  0  0
   -1.1169    1.4414    0.0000 O   0  0  0  0  0  0  0  0  0  0  0  0
   -0.0773    0.4019    0.0000 C   0  0  0  0  0  0  0  0  0  0  0  0
    0.6371    0.8144    0.0000 C   0  0  0  0  0  0  0  0  0  0  0  0
    1.3516    0.4019    0.0000 C   0  0  0  0  0  0  0  0  0  0  0  0
    1.3516   -0.4231    0.0000 C   0  0  0  0  0  0  0  0  0  0  0  0
    0.6371   -0.8356    0.0000 C   0  0  0  0  0  0  0  0  0  0  0  0
   -0.0773   -0.4231    0.0000 C   0  0  0  0  0  0  0  0  0  0  0  0
   -0.8620   -0.6781    0.0000 C   0  0  0  0  0  0  0  0  0  0  0  0
   -1.1169   -1.4627    0.0000 O   0  0  0  0  0  0  0  0  0  0  0  0
  1  2  1  0  0  0  0
  2  3  1  0  0  0  0
  2  4  1  0  0  0  0
  2  5  1  0  0  0  0
  5  6  1  0  0  0  0
  7  6  1  0  0  0  0
  7  8  2  0  0  0  0
  9  7  1  0  0  0  0
  9 10  2  0  0  0  0
 10 11  1  0  0  0  0
 11 12  2  0  0  0  0
 12 13  1  0  0  0  0
 13 14  2  0  0  0  0
 14  9  1  0  0  0  0
 15 14  1  0  0  0  0
  6 15  1  0  0  0  0
 15 16  2  0  0  0  0
M  END
> <ChemID>
202130

> <CAS>
719-96-0

> <Original_SMILES>
O=C1c2ccccc2C(=O)N1SC(F)(Cl)Cl

> <preferred_name>
Fluorofolpet

> <dsstox_substance_id>
DTXSID5041982

> <dsstox_compound_id>
DTXCID3021982

> <qc_level>


> <Canonical_QSARr>
O=C1C2=CC=CC=C2C(=O)N1SC(F)(Cl)Cl

> <InChI_Code_QSARr>
InChI=1S/C9H4Cl2FNO2S/c10-9(11,12)16-13-7(14)5-3-1-2-4-6(5)8(13)15/h1-4H

> <InChI Key_QSARr>
NCDBYAPSWOPDRN-UHFFFAOYSA-N

> <Salt_Solvent>


> <Salt_Solvent_ID>
0

> <MPID>
101588

> <Tr_1_Tst_0>
0

> <Ready_Biodeg>
0.0

$$$$
Row1554
  Mrv171c012251911052D          

  9  9  0  0  0  0            999 V2000
   -0.8699    0.4002    0.0000 Cl  0  0  0  0  0  0  0  0  0  0  0  0
   -0.1555   -0.0123    0.0000 C   0  0  0  0  0  0  0  0  0  0  0  0
   -0.1555   -0.8373    0.0000 C   0  0  0  0  0  0  0  0  0  0  0  0
    0.5590   -1.2498    0.0000 C   0  0  0  0  0  0  0  0  0  0  0  0
    1.2735   -0.8373    0.0000 C   0  0  0  0  0  0  0  0  0  0  0  0
    1.2735   -0.0123    0.0000 C   0  0  0  0  0  0  0  0  0  0  0  0
    0.5590    0.4002    0.0000 C   0  0  0  0  0  0  0  0  0  0  0  0
    0.5590    1.2252    0.0000 C   0  0  0  0  0  0  0  0  0  0  0  0
   -0.1555    1.6377    0.0000 O   0  0  0  0  0  0  0  0  0  0  0  0
  1  2  1  0  0  0  0
  3  2  2  0  0  0  0
  4  3  1  0  0  0  0
  5  4  2  0  0  0  0
  6  5  1  0  0  0  0
  7  6  2  0  0  0  0
  2  7  1  0  0  0  0
  7  8  1  0  0  0  0
  8  9  2  0  0  0  0
M  END
> <ChemID>
202136

> <CAS>
89-98-5

> <Original_SMILES>
O=Cc1ccccc1Cl

> <preferred_name>
2-Chlorobenzaldehyde

> <dsstox_substance_id>
DTXSID5024764

> <dsstox_compound_id>
DTXCID204764

> <qc_level>


> <Canonical_QSARr>
O=CC1=CC=CC=C1Cl

> <InChI_Code_QSARr>
InChI=1S/C7H5ClO/c8-7-4-2-1-3-6(7)5-9/h1-5H

> <InChI Key_QSARr>
FPYUJUBAXZAQNL-UHFFFAOYSA-N

> <Salt_Solvent>


> <Salt_Solvent_ID>
0

> <MPID>
101589

> <Tr_1_Tst_0>
1

> <Ready_Biodeg>
0.0

$$$$
Row1555
  Mrv171c012251911052D          

 17 18  0  0  0  0            999 V2000
    0.0000   -3.3000    0.0000 Cl  0  0  0  0  0  0  0  0  0  0  0  0
    0.0000   -2.4750    0.0000 C   0  0  0  0  0  0  0  0  0  0  0  0
    0.7145   -2.0625    0.0000 C   0  0  0  0  0  0  0  0  0  0  0  0
    0.7145   -1.2375    0.0000 C   0  0  0  0  0  0  0  0  0  0  0  0
    0.0000   -0.8250    0.0000 C   0  0  0  0  0  0  0  0  0  0  0  0
    0.0000   -0.0000    0.0000 S   0  0  0  0  0  0  0  0  0  0  0  0
    0.8250   -0.0000    0.0000 O   0  0  0  0  0  0  0  0  0  0  0  0
   -0.8250   -0.0000    0.0000 O   0  0  0  0  0  0  0  0  0  0  0  0
    0.0000    0.8250    0.0000 C   0  0  0  0  0  0  0  0  0  0  0  0
    0.7145    1.2375    0.0000 C   0  0  0  0  0  0  0  0  0  0  0  0
    0.7145    2.0625    0.0000 C   0  0  0  0  0  0  0  0  0  0  0  0
    0.0000    2.4750    0.0000 C   0  0  0  0  0  0  0  0  0  0  0  0
    0.0000    3.3000    0.0000 Cl  0  0  0  0  0  0  0  0  0  0  0  0
   -0.7145    2.0625    0.0000 C   0  0  0  0  0  0  0  0  0  0  0  0
   -0.7145    1.2375    0.0000 C   0  0  0  0  0  0  0  0  0  0  0  0
   -0.7145   -1.2375    0.0000 C   0  0  0  0  0  0  0  0  0  0  0  0
   -0.7145   -2.0625    0.0000 C   0  0  0  0  0  0  0  0  0  0  0  0
  1  2  1  0  0  0  0
  3  2  2  0  0  0  0
  4  3  1  0  0  0  0
  5  4  2  0  0  0  0
  5  6  1  0  0  0  0
  6  7  2  0  0  0  0
  6  8  2  0  0  0  0
  6  9  1  0  0  0  0
 10  9  2  0  0  0  0
 11 10  1  0  0  0  0
 12 11  2  0  0  0  0
 12 13  1  0  0  0  0
 14 12  1  0  0  0  0
 15 14  2  0  0  0  0
  9 15  1  0  0  0  0
 16  5  1  0  0  0  0
 17 16  2  0  0  0  0
  2 17  1  0  0  0  0
M  END
> <ChemID>
202144

> <CAS>
80-07-9

> <Original_SMILES>
O=S(=O)(c1ccc(Cl)cc1)c1ccc(Cl)cc1

> <preferred_name>
4,4'-Dichlorodiphenyl sulfone

> <dsstox_substance_id>
DTXSID9024986

> <dsstox_compound_id>
DTXCID004986

> <qc_level>


> <Canonical_QSARr>
O=S(=O)(C1C=CC(Cl)=CC=1)C1C=CC(Cl)=CC=1

> <InChI_Code_QSARr>
InChI=1S/C12H8Cl2O2S/c13-9-1-5-11(6-2-9)17(15,16)12-7-3-10(14)4-8-12/h1-8H

> <InChI Key_QSARr>
GPAPPPVRLPGFEQ-UHFFFAOYSA-N

> <Salt_Solvent>


> <Salt_Solvent_ID>
0

> <MPID>
101590

> <Tr_1_Tst_0>
1

> <Ready_Biodeg>
0.0

$$$$
Row1556
  Mrv171c012251911052D          

  7  7  0  0  0  0            999 V2000
   -0.4639    1.6196    0.0000 O   0  0  0  0  0  0  0  0  0  0  0  0
    0.0882    1.0065    0.0000 S   0  0  0  0  0  0  0  0  0  0  0  0
    0.6402    1.6196    0.0000 O   0  0  0  0  0  0  0  0  0  0  0  0
   -0.5793    0.5216    0.0000 C   0  0  0  0  0  0  0  0  0  0  0  0
   -0.3243   -0.2630    0.0000 C   0  0  0  0  0  0  0  0  0  0  0  0
    0.5007   -0.2630    0.0000 C   0  0  0  0  0  0  0  0  0  0  0  0
    0.7556    0.5216    0.0000 O   0  0  0  0  0  0  0  0  0  0  0  0
  1  2  2  0  0  0  0
  2  3  2  0  0  0  0
  4  2  1  0  0  0  0
  5  4  1  0  0  0  0
  6  5  1  0  0  0  0
  7  6  1  0  0  0  0
  2  7  1  0  0  0  0
M  END
> <ChemID>
202146

> <CAS>
1120-71-4

> <Original_SMILES>
O=S1(=O)CCCO1

> <preferred_name>
1,3-Propane sultone

> <dsstox_substance_id>
DTXSID8021195

> <dsstox_compound_id>
DTXCID001195

> <qc_level>


> <Canonical_QSARr>
O=S1(=O)CCCO1

> <InChI_Code_QSARr>
InChI=1S/C3H6O3S/c4-7(5)3-1-2-6-7/h1-3H2

> <InChI Key_QSARr>
FSSPGSAQUIYDCN-UHFFFAOYSA-N

> <Salt_Solvent>


> <Salt_Solvent_ID>
0

> <MPID>
101591

> <Tr_1_Tst_0>
0

> <Ready_Biodeg>
1.0

$$$$
Row1557
  Mrv171c012251911052D          

 43 42  0  0  0  0            999 V2000
   -0.4459   -5.8997    0.0000 O   0  0  0  0  0  0  0  0  0  0  0  0
    0.2686   -5.4872    0.0000 C   0  0  0  0  0  0  0  0  0  0  0  0
    0.9831   -5.8997    0.0000 O   0  0  0  0  0  0  0  0  0  0  0  0
    0.2686   -4.6622    0.0000 C   0  0  0  0  0  0  0  0  0  0  0  0
    1.0936   -4.6622    0.0000 F   0  0  0  0  0  0  0  0  0  0  0  0
   -0.5564   -4.6622    0.0000 F   0  0  0  0  0  0  0  0  0  0  0  0
    0.2686   -3.8372    0.0000 C   0  0  0  0  0  0  0  0  0  0  0  0
    1.0936   -3.8372    0.0000 F   0  0  0  0  0  0  0  0  0  0  0  0
   -0.5564   -3.8372    0.0000 F   0  0  0  0  0  0  0  0  0  0  0  0
    0.2686   -3.0122    0.0000 C   0  0  0  0  0  0  0  0  0  0  0  0
    1.0936   -3.0122    0.0000 F   0  0  0  0  0  0  0  0  0  0  0  0
   -0.5564   -3.0122    0.0000 F   0  0  0  0  0  0  0  0  0  0  0  0
    0.2686   -2.1872    0.0000 C   0  0  0  0  0  0  0  0  0  0  0  0
    1.0936   -2.1872    0.0000 F   0  0  0  0  0  0  0  0  0  0  0  0
   -0.5564   -2.1872    0.0000 F   0  0  0  0  0  0  0  0  0  0  0  0
    0.2686   -1.3622    0.0000 C   0  0  0  0  0  0  0  0  0  0  0  0
    1.0936   -1.3622    0.0000 F   0  0  0  0  0  0  0  0  0  0  0  0
   -0.5564   -1.3622    0.0000 F   0  0  0  0  0  0  0  0  0  0  0  0
    0.2686   -0.5372    0.0000 C   0  0  0  0  0  0  0  0  0  0  0  0
    1.0936   -0.5372    0.0000 F   0  0  0  0  0  0  0  0  0  0  0  0
   -0.5564   -0.5372    0.0000 F   0  0  0  0  0  0  0  0  0  0  0  0
    0.2686    0.2878    0.0000 C   0  0  0  0  0  0  0  0  0  0  0  0
    1.0936    0.2878    0.0000 F   0  0  0  0  0  0  0  0  0  0  0  0
   -0.5564    0.2878    0.0000 F   0  0  0  0  0  0  0  0  0  0  0  0
    0.2686    1.1128    0.0000 C   0  0  0  0  0  0  0  0  0  0  0  0
    1.0936    1.1128    0.0000 F   0  0  0  0  0  0  0  0  0  0  0  0
   -0.5564    1.1128    0.0000 F   0  0  0  0  0  0  0  0  0  0  0  0
    0.2686    1.9378    0.0000 C   0  0  0  0  0  0  0  0  0  0  0  0
    1.0936    1.9378    0.0000 F   0  0  0  0  0  0  0  0  0  0  0  0
   -0.5564    1.9378    0.0000 F   0  0  0  0  0  0  0  0  0  0  0  0
    0.2686    2.7628    0.0000 C   0  0  0  0  0  0  0  0  0  0  0  0
    1.0936    2.7628    0.0000 F   0  0  0  0  0  0  0  0  0  0  0  0
   -0.5564    2.7628    0.0000 F   0  0  0  0  0  0  0  0  0  0  0  0
    0.2686    3.5878    0.0000 C   0  0  0  0  0  0  0  0  0  0  0  0
    1.0936    3.5878    0.0000 F   0  0  0  0  0  0  0  0  0  0  0  0
   -0.5564    3.5878    0.0000 F   0  0  0  0  0  0  0  0  0  0  0  0
    0.2686    4.4128    0.0000 C   0  0  0  0  0  0  0  0  0  0  0  0
    1.0936    4.4128    0.0000 F   0  0  0  0  0  0  0  0  0  0  0  0
   -0.5564    4.4128    0.0000 F   0  0  0  0  0  0  0  0  0  0  0  0
    0.2686    5.2378    0.0000 C   0  0  0  0  0  0  0  0  0  0  0  0
    0.2686    6.0628    0.0000 F   0  0  0  0  0  0  0  0  0  0  0  0
    1.0936    5.2378    0.0000 F   0  0  0  0  0  0  0  0  0  0  0  0
   -0.5564    5.2378    0.0000 F   0  0  0  0  0  0  0  0  0  0  0  0
  1  2  1  0  0  0  0
  2  3  2  0  0  0  0
  2  4  1  0  0  0  0
  4  5  1  0  0  0  0
  4  6  1  0  0  0  0
  4  7  1  0  0  0  0
  7  8  1  0  0  0  0
  7  9  1  0  0  0  0
  7 10  1  0  0  0  0
 10 11  1  0  0  0  0
 10 12  1  0  0  0  0
 10 13  1  0  0  0  0
 13 14  1  0  0  0  0
 13 15  1  0  0  0  0
 13 16  1  0  0  0  0
 16 17  1  0  0  0  0
 16 18  1  0  0  0  0
 16 19  1  0  0  0  0
 19 20  1  0  0  0  0
 19 21  1  0  0  0  0
 19 22  1  0  0  0  0
 22 23  1  0  0  0  0
 22 24  1  0  0  0  0
 22 25  1  0  0  0  0
 25 26  1  0  0  0  0
 25 27  1  0  0  0  0
 25 28  1  0  0  0  0
 28 29  1  0  0  0  0
 28 30  1  0  0  0  0
 28 31  1  0  0  0  0
 31 32  1  0  0  0  0
 31 33  1  0  0  0  0
 31 34  1  0  0  0  0
 34 35  1  0  0  0  0
 34 36  1  0  0  0  0
 34 37  1  0  0  0  0
 37 38  1  0  0  0  0
 37 39  1  0  0  0  0
 37 40  1  0  0  0  0
 40 41  1  0  0  0  0
 40 42  1  0  0  0  0
 40 43  1  0  0  0  0
M  END
> <ChemID>
202150

> <CAS>
376-06-7

> <Original_SMILES>
OC(=O)C(F)(F)C(F)(F)C(F)(F)C(F)(F)C(F)(F)C(F)(F)C(F)(F)C(F)(F)C(F)(F)C(F)(F)C(F)(F)C(F)(F)C(F)(F)F

> <preferred_name>
Perfluoromyristic acid

> <dsstox_substance_id>
DTXSID3059921

> <dsstox_compound_id>
DTXCID4039362

> <qc_level>


> <Canonical_QSARr>
OC(=O)C(F)(F)C(F)(F)C(F)(F)C(F)(F)C(F)(F)C(F)(F)C(F)(F)C(F)(F)C(F)(F)C(F)(F)C(F)(F)C(F)(F)C(F)(F)F

> <InChI_Code_QSARr>
InChI=1S/C14HF27O2/c15-2(16,1(42)43)3(17,18)4(19,20)5(21,22)6(23,24)7(25,26)8(27,28)9(29,30)10(31,32)11(33,34)12(35,36)13(37,38)14(39,40)41/h(H,42,43)

> <InChI Key_QSARr>
RUDINRUXCKIXAJ-UHFFFAOYSA-N

> <Salt_Solvent>


> <Salt_Solvent_ID>
0

> <MPID>
101592

> <Tr_1_Tst_0>
0

> <Ready_Biodeg>
0.0

$$$$
Row1558
  Mrv171c012251911052D          

 37 36  0  0  0  0            999 V2000
   -0.4469   -5.0726    0.0000 O   0  0  0  0  0  0  0  0  0  0  0  0
    0.2676   -4.6601    0.0000 C   0  0  0  0  0  0  0  0  0  0  0  0
    0.9820   -5.0726    0.0000 O   0  0  0  0  0  0  0  0  0  0  0  0
    0.2676   -3.8351    0.0000 C   0  0  0  0  0  0  0  0  0  0  0  0
    1.0926   -3.8351    0.0000 F   0  0  0  0  0  0  0  0  0  0  0  0
   -0.5574   -3.8351    0.0000 F   0  0  0  0  0  0  0  0  0  0  0  0
    0.2676   -3.0101    0.0000 C   0  0  0  0  0  0  0  0  0  0  0  0
    1.0926   -3.0101    0.0000 F   0  0  0  0  0  0  0  0  0  0  0  0
   -0.5574   -3.0101    0.0000 F   0  0  0  0  0  0  0  0  0  0  0  0
    0.2676   -2.1851    0.0000 C   0  0  0  0  0  0  0  0  0  0  0  0
    1.0926   -2.1851    0.0000 F   0  0  0  0  0  0  0  0  0  0  0  0
   -0.5574   -2.1851    0.0000 F   0  0  0  0  0  0  0  0  0  0  0  0
    0.2676   -1.3601    0.0000 C   0  0  0  0  0  0  0  0  0  0  0  0
    1.0926   -1.3601    0.0000 F   0  0  0  0  0  0  0  0  0  0  0  0
   -0.5574   -1.3601    0.0000 F   0  0  0  0  0  0  0  0  0  0  0  0
    0.2676   -0.5351    0.0000 C   0  0  0  0  0  0  0  0  0  0  0  0
    1.0926   -0.5351    0.0000 F   0  0  0  0  0  0  0  0  0  0  0  0
   -0.5574   -0.5351    0.0000 F   0  0  0  0  0  0  0  0  0  0  0  0
    0.2676    0.2899    0.0000 C   0  0  0  0  0  0  0  0  0  0  0  0
    1.0926    0.2899    0.0000 F   0  0  0  0  0  0  0  0  0  0  0  0
   -0.5574    0.2899    0.0000 F   0  0  0  0  0  0  0  0  0  0  0  0
    0.2676    1.1149    0.0000 C   0  0  0  0  0  0  0  0  0  0  0  0
    1.0926    1.1149    0.0000 F   0  0  0  0  0  0  0  0  0  0  0  0
   -0.5574    1.1149    0.0000 F   0  0  0  0  0  0  0  0  0  0  0  0
    0.2676    1.9399    0.0000 C   0  0  0  0  0  0  0  0  0  0  0  0
    1.0926    1.9399    0.0000 F   0  0  0  0  0  0  0  0  0  0  0  0
   -0.5574    1.9399    0.0000 F   0  0  0  0  0  0  0  0  0  0  0  0
    0.2676    2.7649    0.0000 C   0  0  0  0  0  0  0  0  0  0  0  0
    1.0926    2.7649    0.0000 F   0  0  0  0  0  0  0  0  0  0  0  0
   -0.5574    2.7649    0.0000 F   0  0  0  0  0  0  0  0  0  0  0  0
    0.2676    3.5899    0.0000 C   0  0  0  0  0  0  0  0  0  0  0  0
    1.0926    3.5899    0.0000 F   0  0  0  0  0  0  0  0  0  0  0  0
   -0.5574    3.5899    0.0000 F   0  0  0  0  0  0  0  0  0  0  0  0
    0.2676    4.4149    0.0000 C   0  0  0  0  0  0  0  0  0  0  0  0
    0.2676    5.2399    0.0000 F   0  0  0  0  0  0  0  0  0  0  0  0
    1.0926    4.4149    0.0000 F   0  0  0  0  0  0  0  0  0  0  0  0
   -0.5574    4.4149    0.0000 F   0  0  0  0  0  0  0  0  0  0  0  0
  1  2  1  0  0  0  0
  2  3  2  0  0  0  0
  2  4  1  0  0  0  0
  4  5  1  0  0  0  0
  4  6  1  0  0  0  0
  4  7  1  0  0  0  0
  7  8  1  0  0  0  0
  7  9  1  0  0  0  0
  7 10  1  0  0  0  0
 10 11  1  0  0  0  0
 10 12  1  0  0  0  0
 10 13  1  0  0  0  0
 13 14  1  0  0  0  0
 13 15  1  0  0  0  0
 13 16  1  0  0  0  0
 16 17  1  0  0  0  0
 16 18  1  0  0  0  0
 16 19  1  0  0  0  0
 19 20  1  0  0  0  0
 19 21  1  0  0  0  0
 19 22  1  0  0  0  0
 22 23  1  0  0  0  0
 22 24  1  0  0  0  0
 22 25  1  0  0  0  0
 25 26  1  0  0  0  0
 25 27  1  0  0  0  0
 25 28  1  0  0  0  0
 28 29  1  0  0  0  0
 28 30  1  0  0  0  0
 28 31  1  0  0  0  0
 31 32  1  0  0  0  0
 31 33  1  0  0  0  0
 31 34  1  0  0  0  0
 34 35  1  0  0  0  0
 34 36  1  0  0  0  0
 34 37  1  0  0  0  0
M  END
> <ChemID>
202151

> <CAS>
307-55-1

> <Original_SMILES>
OC(=O)C(F)(F)C(F)(F)C(F)(F)C(F)(F)C(F)(F)C(F)(F)C(F)(F)C(F)(F)C(F)(F)C(F)(F)C(F)(F)F

> <preferred_name>
PFDOA

> <dsstox_substance_id>
DTXSID8031861

> <dsstox_compound_id>
DTXCID6011861

> <qc_level>


> <Canonical_QSARr>
OC(=O)C(F)(F)C(F)(F)C(F)(F)C(F)(F)C(F)(F)C(F)(F)C(F)(F)C(F)(F)C(F)(F)C(F)(F)C(F)(F)F

> <InChI_Code_QSARr>
InChI=1S/C12HF23O2/c13-2(14,1(36)37)3(15,16)4(17,18)5(19,20)6(21,22)7(23,24)8(25,26)9(27,28)10(29,30)11(31,32)12(33,34)35/h(H,36,37)

> <InChI Key_QSARr>
CXGONMQFMIYUJR-UHFFFAOYSA-N

> <Salt_Solvent>


> <Salt_Solvent_ID>
0

> <MPID>
101593

> <Tr_1_Tst_0>
1

> <Ready_Biodeg>
0.0

$$$$
Row1559
  Mrv171c012251911052D          

 25 24  0  0  0  0            999 V2000
   -0.4505   -3.4155    0.0000 O   0  0  0  0  0  0  0  0  0  0  0  0
    0.2640   -3.0030    0.0000 C   0  0  0  0  0  0  0  0  0  0  0  0
    0.9785   -3.4155    0.0000 O   0  0  0  0  0  0  0  0  0  0  0  0
    0.2640   -2.1780    0.0000 C   0  0  0  0  0  0  0  0  0  0  0  0
    1.0890   -2.1780    0.0000 F   0  0  0  0  0  0  0  0  0  0  0  0
   -0.5610   -2.1780    0.0000 F   0  0  0  0  0  0  0  0  0  0  0  0
    0.2640   -1.3530    0.0000 C   0  0  0  0  0  0  0  0  0  0  0  0
    1.0890   -1.3530    0.0000 F   0  0  0  0  0  0  0  0  0  0  0  0
   -0.5610   -1.3530    0.0000 F   0  0  0  0  0  0  0  0  0  0  0  0
    0.2640   -0.5280    0.0000 C   0  0  0  0  0  0  0  0  0  0  0  0
    1.0890   -0.5280    0.0000 F   0  0  0  0  0  0  0  0  0  0  0  0
   -0.5610   -0.5280    0.0000 F   0  0  0  0  0  0  0  0  0  0  0  0
    0.2640    0.2970    0.0000 C   0  0  0  0  0  0  0  0  0  0  0  0
    1.0890    0.2970    0.0000 F   0  0  0  0  0  0  0  0  0  0  0  0
   -0.5610    0.2970    0.0000 F   0  0  0  0  0  0  0  0  0  0  0  0
    0.2640    1.1220    0.0000 C   0  0  0  0  0  0  0  0  0  0  0  0
    1.0890    1.1220    0.0000 F   0  0  0  0  0  0  0  0  0  0  0  0
   -0.5610    1.1220    0.0000 F   0  0  0  0  0  0  0  0  0  0  0  0
    0.2640    1.9470    0.0000 C   0  0  0  0  0  0  0  0  0  0  0  0
    1.0890    1.9470    0.0000 F   0  0  0  0  0  0  0  0  0  0  0  0
   -0.5610    1.9470    0.0000 F   0  0  0  0  0  0  0  0  0  0  0  0
    0.2640    2.7720    0.0000 C   0  0  0  0  0  0  0  0  0  0  0  0
    0.2640    3.5970    0.0000 F   0  0  0  0  0  0  0  0  0  0  0  0
    1.0890    2.7720    0.0000 F   0  0  0  0  0  0  0  0  0  0  0  0
   -0.5610    2.7720    0.0000 F   0  0  0  0  0  0  0  0  0  0  0  0
  1  2  1  0  0  0  0
  2  3  2  0  0  0  0
  2  4  1  0  0  0  0
  4  5  1  0  0  0  0
  4  6  1  0  0  0  0
  4  7  1  0  0  0  0
  7  8  1  0  0  0  0
  7  9  1  0  0  0  0
  7 10  1  0  0  0  0
 10 11  1  0  0  0  0
 10 12  1  0  0  0  0
 10 13  1  0  0  0  0
 13 14  1  0  0  0  0
 13 15  1  0  0  0  0
 13 16  1  0  0  0  0
 16 17  1  0  0  0  0
 16 18  1  0  0  0  0
 16 19  1  0  0  0  0
 19 20  1  0  0  0  0
 19 21  1  0  0  0  0
 19 22  1  0  0  0  0
 22 23  1  0  0  0  0
 22 24  1  0  0  0  0
 22 25  1  0  0  0  0
M  END
> <ChemID>
202152

> <CAS>
335-67-1

> <Original_SMILES>
OC(=O)C(F)(F)C(F)(F)C(F)(F)C(F)(F)C(F)(F)C(F)(F)C(F)(F)F

> <preferred_name>
PFOA

> <dsstox_substance_id>
DTXSID8031865

> <dsstox_compound_id>
DTXCID6011865

> <qc_level>


> <Canonical_QSARr>
OC(=O)C(F)(F)C(F)(F)C(F)(F)C(F)(F)C(F)(F)C(F)(F)C(F)(F)F

> <InChI_Code_QSARr>
InChI=1S/C8HF15O2/c9-2(10,1(24)25)3(11,12)4(13,14)5(15,16)6(17,18)7(19,20)8(21,22)23/h(H,24,25)

> <InChI Key_QSARr>
SNGREZUHAYWORS-UHFFFAOYSA-N

> <Salt_Solvent>


> <Salt_Solvent_ID>
0

> <MPID>
101594

> <Tr_1_Tst_0>
1

> <Ready_Biodeg>
0.0

$$$$
Row1560
  Mrv171c012251911052D          

 23 24  0  0  0  0            999 V2000
    1.3712   -1.0892    0.0000 O   0  0  0  0  0  0  0  0  0  0  0  0
    0.6568   -0.6767    0.0000 C   0  0  0  0  0  0  0  0  0  0  0  0
    0.6568    0.1483    0.0000 O   0  0  0  0  0  0  0  0  0  0  0  0
   -0.0577   -1.0892    0.0000 C   0  0  0  0  0  0  0  0  0  0  0  0
   -0.0577   -1.9142    0.0000 C   0  0  0  0  0  0  0  0  0  0  0  0
   -0.7722   -2.3267    0.0000 C   0  0  0  0  0  0  0  0  0  0  0  0
   -1.4866   -1.9142    0.0000 C   0  0  0  0  0  0  0  0  0  0  0  0
   -1.4866   -1.0892    0.0000 C   0  0  0  0  0  0  0  0  0  0  0  0
   -0.7722   -0.6767    0.0000 C   0  0  0  0  0  0  0  0  0  0  0  0
   -0.7722    0.1483    0.0000 C   0  0  0  0  0  0  0  0  0  0  0  0
   -0.0577    0.5608    0.0000 O   0  0  0  0  0  0  0  0  0  0  0  0
   -1.4866    0.5608    0.0000 O   0  0  0  0  0  0  0  0  0  0  0  0
   -1.4866    1.3858    0.0000 C   0  0  0  0  0  0  0  0  0  0  0  0
   -0.7722    1.7983    0.0000 O   0  0  0  0  0  0  0  0  0  0  0  0
   -2.2011    1.7983    0.0000 C   0  0  0  0  0  0  0  0  0  0  0  0
   -2.2011    2.6233    0.0000 C   0  0  0  0  0  0  0  0  0  0  0  0
   -2.9156    3.0358    0.0000 C   0  0  0  0  0  0  0  0  0  0  0  0
   -3.6301    2.6233    0.0000 C   0  0  0  0  0  0  0  0  0  0  0  0
   -3.6301    1.7983    0.0000 C   0  0  0  0  0  0  0  0  0  0  0  0
   -2.9156    1.3858    0.0000 C   0  0  0  0  0  0  0  0  0  0  0  0
   -2.9156    0.5608    0.0000 C   0  0  0  0  0  0  0  0  0  0  0  0
   -2.2011    0.1483    0.0000 O   0  0  0  0  0  0  0  0  0  0  0  0
   -3.6301    0.1483    0.0000 O   0  0  0  0  0  0  0  0  0  0  0  0
  1  2  1  0  0  0  0
  2  3  2  0  0  0  0
  2  4  1  0  0  0  0
  5  4  1  0  0  0  0
  6  5  1  0  0  0  0
  7  6  1  0  0  0  0
  8  7  1  0  0  0  0
  9  8  1  0  0  0  0
  4  9  1  0  0  0  0
  9 10  1  0  0  0  0
 10 11  2  0  0  0  0
 10 12  1  0  0  0  0
 12 13  1  0  0  0  0
 13 14  2  0  0  0  0
 13 15  1  0  0  0  0
 16 15  1  0  0  0  0
 17 16  1  0  0  0  0
 18 17  1  0  0  0  0
 19 18  1  0  0  0  0
 20 19  1  0  0  0  0
 15 20  1  0  0  0  0
 20 21  1  0  0  0  0
 21 22  1  0  0  0  0
 21 23  2  0  0  0  0
M  END
> <ChemID>
202158

> <CAS>
13149-00-3

> <Original_SMILES>
OC(=O)C1CCCCC1C(=O)OC(=O)C1CCCCC1C(O)=O

> <preferred_name>


> <dsstox_substance_id>


> <dsstox_compound_id>


> <qc_level>


> <Canonical_QSARr>
OC(=O)C1CCCCC1C(=O)OC(=O)C1CCCCC1C(O)=O

> <InChI_Code_QSARr>
InChI=1S/C16H22O7/c17-13(18)9-5-1-3-7-11(9)15(21)23-16(22)12-8-4-2-6-10(12)14(19)20/h9-12H,1-8H2,(H,17,18)(H,19,20)

> <InChI Key_QSARr>
BHUJRLVPGNPDNJ-UHFFFAOYSA-N

> <Salt_Solvent>


> <Salt_Solvent_ID>
0

> <MPID>
101595

> <Tr_1_Tst_0>
0

> <Ready_Biodeg>
0.0

$$$$
Row1561
  Mrv171c012251911052D          

  5  4  0  0  0  0            999 V2000
    1.3200   -0.2858    0.0000 O   0  0  0  0  0  0  0  0  0  0  0  0
    0.4950   -0.2858    0.0000 C   0  0  0  0  0  0  0  0  0  0  0  0
    0.0825   -1.0003    0.0000 O   0  0  0  0  0  0  0  0  0  0  0  0
    0.0825    0.4287    0.0000 C   0  0  0  0  0  0  0  0  0  0  0  0
   -0.7425    0.4287    0.0000 O   0  0  0  0  0  0  0  0  0  0  0  0
  1  2  1  0  0  0  0
  2  3  2  0  0  0  0
  2  4  1  0  0  0  0
  4  5  2  0  0  0  0
M  END
> <ChemID>
202160

> <CAS>
298-12-4

> <Original_SMILES>
OC(=O)C=O

> <preferred_name>
Glyoxylic acid

> <dsstox_substance_id>
DTXSID5021594

> <dsstox_compound_id>
DTXCID401594

> <qc_level>


> <Canonical_QSARr>
OC(=O)C=O

> <InChI_Code_QSARr>
InChI=1S/C2H2O3/c3-1-2(4)5/h1H,(H,4,5)

> <InChI Key_QSARr>
HHLFWLYXYJOTON-UHFFFAOYSA-N

> <Salt_Solvent>


> <Salt_Solvent_ID>
0

> <MPID>
101596

> <Tr_1_Tst_0>
1

> <Ready_Biodeg>
1.0

$$$$
Row1562
  Mrv171c012251911052D          

 14 13  0  0  0  0            999 V2000
   -3.5171   -0.2062    0.0000 O   0  0  0  0  0  0  0  0  0  0  0  0
   -2.8026    0.2063    0.0000 C   0  0  0  0  0  0  0  0  0  0  0  0
   -2.8026    1.0313    0.0000 O   0  0  0  0  0  0  0  0  0  0  0  0
   -2.0881   -0.2062    0.0000 C   0  0  0  0  0  0  0  0  0  0  0  0
   -1.3737    0.2063    0.0000 C   0  0  0  0  0  0  0  0  0  0  0  0
   -0.6592   -0.2062    0.0000 C   0  0  0  0  0  0  0  0  0  0  0  0
    0.0553    0.2063    0.0000 C   0  0  0  0  0  0  0  0  0  0  0  0
    0.7698   -0.2062    0.0000 C   0  0  0  0  0  0  0  0  0  0  0  0
    1.4842    0.2063    0.0000 C   0  0  0  0  0  0  0  0  0  0  0  0
    2.1987   -0.2063    0.0000 C   0  0  0  0  0  0  0  0  0  0  0  0
    2.9132    0.2062    0.0000 C   0  0  0  0  0  0  0  0  0  0  0  0
    3.6276   -0.2063    0.0000 C   0  0  0  0  0  0  0  0  0  0  0  0
    4.3421    0.2062    0.0000 O   0  0  0  0  0  0  0  0  0  0  0  0
    3.6276   -1.0313    0.0000 O   0  0  0  0  0  0  0  0  0  0  0  0
  1  2  1  0  0  0  0
  2  3  2  0  0  0  0
  2  4  1  0  0  0  0
  4  5  1  0  0  0  0
  5  6  1  0  0  0  0
  6  7  1  0  0  0  0
  7  8  1  0  0  0  0
  8  9  1  0  0  0  0
  9 10  1  0  0  0  0
 10 11  1  0  0  0  0
 11 12  1  0  0  0  0
 12 13  1  0  0  0  0
 12 14  2  0  0  0  0
M  END
> <ChemID>
202163

> <CAS>
111-20-6

> <Original_SMILES>
OC(=O)CCCCCCCCC(O)=O

> <preferred_name>
Decanedioic acid

> <dsstox_substance_id>
DTXSID7026867

> <dsstox_compound_id>
DTXCID806867

> <qc_level>


> <Canonical_QSARr>
OC(=O)CCCCCCCCC(O)=O

> <InChI_Code_QSARr>
InChI=1S/C10H18O4/c11-9(12)7-5-3-1-2-4-6-8-10(13)14/h1-8H2,(H,11,12)(H,13,14)

> <InChI Key_QSARr>
CXMXRPHRNRROMY-UHFFFAOYSA-N

> <Salt_Solvent>


> <Salt_Solvent_ID>
0

> <MPID>
101597

> <Tr_1_Tst_0>
1

> <Ready_Biodeg>
1.0

$$$$
Row1563
  Mrv171c012251911052D          

 11 10  0  0  0  0            999 V2000
   -3.5723   -0.1875    0.0000 O   0  0  0  0  0  0  0  0  0  0  0  0
   -2.8578   -0.6000    0.0000 C   0  0  0  0  0  0  0  0  0  0  0  0
   -2.8578   -1.4250    0.0000 O   0  0  0  0  0  0  0  0  0  0  0  0
   -2.1434   -0.1875    0.0000 C   0  0  0  0  0  0  0  0  0  0  0  0
   -1.4289   -0.6000    0.0000 C   0  0  0  0  0  0  0  0  0  0  0  0
   -0.7144   -0.1875    0.0000 S   0  0  0  0  0  0  0  0  0  0  0  0
    0.0000   -0.6000    0.0000 C   0  0  0  0  0  0  0  0  0  0  0  0
    0.7145   -0.1875    0.0000 C   0  0  0  0  0  0  0  0  0  0  0  0
    1.4290   -0.6000    0.0000 C   0  0  0  0  0  0  0  0  0  0  0  0
    2.1435   -0.1875    0.0000 O   0  0  0  0  0  0  0  0  0  0  0  0
    1.4290   -1.4250    0.0000 O   0  0  0  0  0  0  0  0  0  0  0  0
  1  2  1  0  0  0  0
  2  3  2  0  0  0  0
  2  4  1  0  0  0  0
  4  5  1  0  0  0  0
  5  6  1  0  0  0  0
  6  7  1  0  0  0  0
  7  8  1  0  0  0  0
  8  9  1  0  0  0  0
  9 10  1  0  0  0  0
  9 11  2  0  0  0  0
M  END
> <ChemID>
202165

> <CAS>
111-17-1

> <Original_SMILES>
OC(=O)CCSCCC(O)=O

> <preferred_name>
Bis(2-carboxyethyl) sulfide

> <dsstox_substance_id>
DTXSID8044200

> <dsstox_compound_id>
DTXCID6024200

> <qc_level>


> <Canonical_QSARr>
OC(=O)CCSCCC(O)=O

> <InChI_Code_QSARr>
InChI=1S/C6H10O4S/c7-5(8)1-3-11-4-2-6(9)10/h1-4H2,(H,7,8)(H,9,10)

> <InChI Key_QSARr>
ODJQKYXPKWQWNK-UHFFFAOYSA-N

> <Salt_Solvent>


> <Salt_Solvent_ID>
0

> <MPID>
101598

> <Tr_1_Tst_0>
1

> <Ready_Biodeg>
1.0

$$$$
Row1564
  Mrv171c012251911052D          

 12 12  0  0  0  0            999 V2000
    0.9409   -2.0827    0.0000 O   0  0  0  0  0  0  0  0  0  0  0  0
    0.9409   -1.2577    0.0000 C   0  0  0  0  0  0  0  0  0  0  0  0
    1.6554   -0.8452    0.0000 O   0  0  0  0  0  0  0  0  0  0  0  0
    0.2265   -0.8452    0.0000 C   0  0  0  0  0  0  0  0  0  0  0  0
    0.2265   -0.0202    0.0000 C   0  0  0  0  0  0  0  0  0  0  0  0
   -0.4880    0.3923    0.0000 C   0  0  0  0  0  0  0  0  0  0  0  0
   -0.4880    1.2173    0.0000 O   0  0  0  0  0  0  0  0  0  0  0  0
   -1.2025   -0.0202    0.0000 C   0  0  0  0  0  0  0  0  0  0  0  0
   -1.9169    0.3923    0.0000 O   0  0  0  0  0  0  0  0  0  0  0  0
   -1.2025   -0.8452    0.0000 C   0  0  0  0  0  0  0  0  0  0  0  0
   -1.9169   -1.2577    0.0000 O   0  0  0  0  0  0  0  0  0  0  0  0
   -0.4880   -1.2577    0.0000 C   0  0  0  0  0  0  0  0  0  0  0  0
  1  2  1  0  0  0  0
  2  3  2  0  0  0  0
  2  4  1  0  0  0  0
  5  4  2  0  0  0  0
  6  5  1  0  0  0  0
  6  7  1  0  0  0  0
  8  6  2  0  0  0  0
  8  9  1  0  0  0  0
 10  8  1  0  0  0  0
 10 11  1  0  0  0  0
 12 10  2  0  0  0  0
  4 12  1  0  0  0  0
M  END
> <ChemID>
202172

> <CAS>
149-91-7

> <Original_SMILES>
OC(=O)c1cc(O)c(O)c(O)c1

> <preferred_name>
Gallic acid

> <dsstox_substance_id>
DTXSID0020650

> <dsstox_compound_id>
DTXCID60650

> <qc_level>


> <Canonical_QSARr>
OC1C=C(C=C(O)C=1O)C(O)=O

> <InChI_Code_QSARr>
InChI=1S/C7H6O5/c8-4-1-3(7(11)12)2-5(9)6(4)10/h1-2,8-10H,(H,11,12)

> <InChI Key_QSARr>
LNTHITQWFMADLM-UHFFFAOYSA-N

> <Salt_Solvent>


> <Salt_Solvent_ID>
0

> <MPID>
101599

> <Tr_1_Tst_0>
1

> <Ready_Biodeg>
1.0

$$$$
Row1565
  Mrv171c012251911052D          

 12 12  0  0  0  0            999 V2000
   -1.5395   -2.0625    0.0000 O   0  0  0  0  0  0  0  0  0  0  0  0
   -0.8250   -1.6500    0.0000 C   0  0  0  0  0  0  0  0  0  0  0  0
   -0.1105   -2.0625    0.0000 O   0  0  0  0  0  0  0  0  0  0  0  0
   -0.8250   -0.8250    0.0000 C   0  0  0  0  0  0  0  0  0  0  0  0
   -0.1105   -0.4125    0.0000 C   0  0  0  0  0  0  0  0  0  0  0  0
   -0.1105    0.4125    0.0000 C   0  0  0  0  0  0  0  0  0  0  0  0
   -0.8250    0.8250    0.0000 C   0  0  0  0  0  0  0  0  0  0  0  0
   -0.8250    1.6500    0.0000 C   0  0  0  0  0  0  0  0  0  0  0  0
   -1.5395    2.0625    0.0000 O   0  0  0  0  0  0  0  0  0  0  0  0
   -0.1105    2.0625    0.0000 O   0  0  0  0  0  0  0  0  0  0  0  0
   -1.5395    0.4125    0.0000 N   0  0  0  0  0  0  0  0  0  0  0  0
   -1.5395   -0.4125    0.0000 C   0  0  0  0  0  0  0  0  0  0  0  0
  1  2  1  0  0  0  0
  2  3  2  0  0  0  0
  2  4  1  0  0  0  0
  5  4  2  0  0  0  0
  6  5  1  0  0  0  0
  7  6  2  0  0  0  0
  7  8  1  0  0  0  0
  8  9  1  0  0  0  0
  8 10  2  0  0  0  0
 11  7  1  0  0  0  0
 12 11  2  0  0  0  0
  4 12  1  0  0  0  0
M  END
> <ChemID>
202178

> <CAS>
100-26-5

> <Original_SMILES>
OC(=O)c1ccc(c[n]1)C(O)=O

> <preferred_name>
2,5-Pyridinedicarboxylic acid

> <dsstox_substance_id>
DTXSID3059210

> <dsstox_compound_id>
DTXCID9032450

> <qc_level>


> <Canonical_QSARr>
OC(=O)C1=CC=C(C=N1)C(O)=O

> <InChI_Code_QSARr>
InChI=1S/C7H5NO4/c9-6(10)4-1-2-5(7(11)12)8-3-4/h1-3H,(H,9,10)(H,11,12)

> <InChI Key_QSARr>
LVPMIMZXDYBCDF-UHFFFAOYSA-N

> <Salt_Solvent>


> <Salt_Solvent_ID>
0

> <MPID>
101600

> <Tr_1_Tst_0>
0

> <Ready_Biodeg>
0.0

$$$$
Row1566
  Mrv171c012251911052D          

 10  9  0  0  0  0            999 V2000
   -2.1241   -0.0561    0.0000 O   0  0  0  0  0  0  0  0  0  0  0  0
   -1.4096   -0.4686    0.0000 C   0  0  0  0  0  0  0  0  0  0  0  0
   -0.6951   -0.0561    0.0000 C   0  0  0  0  0  0  0  0  0  0  0  0
   -0.6951    0.7689    0.0000 O   0  0  0  0  0  0  0  0  0  0  0  0
    0.0194   -0.4686    0.0000 C   0  0  0  0  0  0  0  0  0  0  0  0
    0.0194   -1.2936    0.0000 O   0  0  0  0  0  0  0  0  0  0  0  0
    0.7338   -0.0561    0.0000 C   0  0  0  0  0  0  0  0  0  0  0  0
    0.7338    0.7689    0.0000 O   0  0  0  0  0  0  0  0  0  0  0  0
    1.4483   -0.4686    0.0000 C   0  0  0  0  0  0  0  0  0  0  0  0
    2.1628   -0.0561    0.0000 O   0  0  0  0  0  0  0  0  0  0  0  0
  1  2  1  0  0  0  0
  2  3  1  0  0  0  0
  3  4  1  0  0  0  0
  3  5  1  0  0  0  0
  5  6  1  0  0  0  0
  5  7  1  0  0  0  0
  7  8  1  0  0  0  0
  7  9  1  0  0  0  0
  9 10  1  0  0  0  0
M  END
> <ChemID>
202185

> <CAS>
87-99-0

> <Original_SMILES>
OC(C(O)CO)C(O)CO

> <preferred_name>
Xylitol

> <dsstox_substance_id>
DTXSID7042514

> <dsstox_compound_id>
DTXCID5022514

> <qc_level>


> <Canonical_QSARr>
OC(C(O)CO)C(O)CO

> <InChI_Code_QSARr>
InChI=1S/C5H12O5/c6-1-3(8)5(10)4(9)2-7/h3-10H,1-2H2

> <InChI Key_QSARr>
HEBKCHPVOIAQTA-UHFFFAOYSA-N

> <Salt_Solvent>


> <Salt_Solvent_ID>
0

> <MPID>
101601

> <Tr_1_Tst_0>
1

> <Ready_Biodeg>
1.0

$$$$
Row1567
  Mrv171c012251911052D          

 12 11  0  0  0  0            999 V2000
   -2.0881   -0.2062    0.0000 O   0  0  0  0  0  0  0  0  0  0  0  0
   -1.3737    0.2063    0.0000 C   0  0  0  0  0  0  0  0  0  0  0  0
   -0.6592   -0.2062    0.0000 C   0  0  0  0  0  0  0  0  0  0  0  0
   -0.6592   -1.0312    0.0000 O   0  0  0  0  0  0  0  0  0  0  0  0
    0.0553    0.2063    0.0000 C   0  0  0  0  0  0  0  0  0  0  0  0
    0.0553    1.0313    0.0000 O   0  0  0  0  0  0  0  0  0  0  0  0
    0.7697   -0.2063    0.0000 C   0  0  0  0  0  0  0  0  0  0  0  0
    0.7697   -1.0313    0.0000 O   0  0  0  0  0  0  0  0  0  0  0  0
    1.4842    0.2062    0.0000 C   0  0  0  0  0  0  0  0  0  0  0  0
    1.4842    1.0312    0.0000 O   0  0  0  0  0  0  0  0  0  0  0  0
    2.1987   -0.2063    0.0000 C   0  0  0  0  0  0  0  0  0  0  0  0
    2.9131    0.2062    0.0000 O   0  0  0  0  0  0  0  0  0  0  0  0
  1  2  1  0  0  0  0
  2  3  1  0  0  0  0
  3  4  1  0  0  0  0
  3  5  1  0  0  0  0
  5  6  1  0  0  0  0
  5  7  1  0  0  0  0
  7  8  1  0  0  0  0
  7  9  1  0  0  0  0
  9 10  1  0  0  0  0
  9 11  1  0  0  0  0
 11 12  1  0  0  0  0
M  END
> <ChemID>
202186

> <CAS>
50-70-4

> <Original_SMILES>
OC(CO)C(O)C(O)C(O)CO

> <preferred_name>
D-Glucitol

> <dsstox_substance_id>
DTXSID5023588

> <dsstox_compound_id>
DTXCID903588

> <qc_level>


> <Canonical_QSARr>
OC(CO)C(O)C(O)C(O)CO

> <InChI_Code_QSARr>
InChI=1S/C6H14O6/c7-1-3(9)5(11)6(12)4(10)2-8/h3-12H,1-2H2

> <InChI Key_QSARr>
FBPFZTCFMRRESA-UHFFFAOYSA-N

> <Salt_Solvent>


> <Salt_Solvent_ID>
0

> <MPID>
101602

> <Tr_1_Tst_0>
0

> <Ready_Biodeg>
1.0

$$$$
Row1568
  Mrv171c012251911052D          

 17 16  0  0  0  0            999 V2000
    4.5430    0.0243    0.0000 O   0  0  0  0  0  0  0  0  0  0  0  0
    3.8286    0.4368    0.0000 C   0  0  0  0  0  0  0  0  0  0  0  0
    3.1141    0.0243    0.0000 C   0  0  0  0  0  0  0  0  0  0  0  0
    2.7016    0.7387    0.0000 C   0  0  0  0  0  0  0  0  0  0  0  0
    1.8766    0.7387    0.0000 O   0  0  0  0  0  0  0  0  0  0  0  0
    3.5266   -0.6902    0.0000 C   0  0  0  0  0  0  0  0  0  0  0  0
    3.1141   -1.4047    0.0000 O   0  0  0  0  0  0  0  0  0  0  0  0
    2.3996   -0.3882    0.0000 C   0  0  0  0  0  0  0  0  0  0  0  0
    1.6852    0.0243    0.0000 O   0  0  0  0  0  0  0  0  0  0  0  0
    0.9707   -0.3882    0.0000 C   0  0  0  0  0  0  0  0  0  0  0  0
    0.2562    0.0243    0.0000 C   0  0  0  0  0  0  0  0  0  0  0  0
   -0.4583    0.4368    0.0000 C   0  0  0  0  0  0  0  0  0  0  0  0
   -1.1727    0.0243    0.0000 O   0  0  0  0  0  0  0  0  0  0  0  0
    0.6687    0.7387    0.0000 C   0  0  0  0  0  0  0  0  0  0  0  0
    0.2562    1.4532    0.0000 O   0  0  0  0  0  0  0  0  0  0  0  0
   -0.1563   -0.6902    0.0000 C   0  0  0  0  0  0  0  0  0  0  0  0
   -0.9813   -0.6902    0.0000 O   0  0  0  0  0  0  0  0  0  0  0  0
  1  2  1  0  0  0  0
  2  3  1  0  0  0  0
  3  4  1  0  0  0  0
  4  5  1  0  0  0  0
  3  6  1  0  0  0  0
  6  7  1  0  0  0  0
  3  8  1  0  0  0  0
  8  9  1  0  0  0  0
  9 10  1  0  0  0  0
 10 11  1  0  0  0  0
 11 12  1  0  0  0  0
 12 13  1  0  0  0  0
 11 14  1  0  0  0  0
 14 15  1  0  0  0  0
 11 16  1  0  0  0  0
 16 17  1  0  0  0  0
M  END
> <ChemID>
202193

> <CAS>
126-58-9

> <Original_SMILES>
OCC(COCC(CO)(CO)CO)(CO)CO

> <preferred_name>
Dipentaerythritol

> <dsstox_substance_id>
DTXSID3027039

> <dsstox_compound_id>
DTXCID207039

> <qc_level>


> <Canonical_QSARr>
OCC(COCC(CO)(CO)CO)(CO)CO

> <InChI_Code_QSARr>
InChI=1S/C10H22O7/c11-1-9(2-12,3-13)7-17-8-10(4-14,5-15)6-16/h11-16H,1-8H2

> <InChI Key_QSARr>
TXBCBTDQIULDIA-UHFFFAOYSA-N

> <Salt_Solvent>


> <Salt_Solvent_ID>
0

> <MPID>
101603

> <Tr_1_Tst_0>
1

> <Ready_Biodeg>
0.0

$$$$
Row1569
  Mrv171c012251911052D          

 32 31  0  0  0  0            999 V2000
    1.5984    4.3761    0.0000 O   0  0  0  0  0  0  0  0  0  0  0  0
    2.0109    3.6617    0.0000 C   0  0  0  0  0  0  0  0  0  0  0  0
    1.5984    2.9472    0.0000 C   0  0  0  0  0  0  0  0  0  0  0  0
    0.8840    3.3597    0.0000 F   0  0  0  0  0  0  0  0  0  0  0  0
    2.3129    2.5347    0.0000 F   0  0  0  0  0  0  0  0  0  0  0  0
    1.1859    2.2327    0.0000 C   0  0  0  0  0  0  0  0  0  0  0  0
    0.4715    2.6452    0.0000 F   0  0  0  0  0  0  0  0  0  0  0  0
    1.9004    1.8202    0.0000 F   0  0  0  0  0  0  0  0  0  0  0  0
    0.7734    1.5183    0.0000 C   0  0  0  0  0  0  0  0  0  0  0  0
    0.0590    1.9308    0.0000 F   0  0  0  0  0  0  0  0  0  0  0  0
    1.4879    1.1058    0.0000 F   0  0  0  0  0  0  0  0  0  0  0  0
    0.3609    0.8038    0.0000 C   0  0  0  0  0  0  0  0  0  0  0  0
   -0.3535    1.2163    0.0000 F   0  0  0  0  0  0  0  0  0  0  0  0
    1.0754    0.3913    0.0000 F   0  0  0  0  0  0  0  0  0  0  0  0
   -0.0516    0.0893    0.0000 C   0  0  0  0  0  0  0  0  0  0  0  0
   -0.7660    0.5018    0.0000 F   0  0  0  0  0  0  0  0  0  0  0  0
    0.6629   -0.3232    0.0000 F   0  0  0  0  0  0  0  0  0  0  0  0
   -0.4641   -0.6252    0.0000 C   0  0  0  0  0  0  0  0  0  0  0  0
   -1.1785   -0.2127    0.0000 F   0  0  0  0  0  0  0  0  0  0  0  0
    0.2504   -1.0377    0.0000 F   0  0  0  0  0  0  0  0  0  0  0  0
   -0.8766   -1.3396    0.0000 C   0  0  0  0  0  0  0  0  0  0  0  0
   -1.5910   -0.9271    0.0000 F   0  0  0  0  0  0  0  0  0  0  0  0
   -0.1621   -1.7521    0.0000 F   0  0  0  0  0  0  0  0  0  0  0  0
   -1.2891   -2.0541    0.0000 C   0  0  0  0  0  0  0  0  0  0  0  0
   -2.0035   -1.6416    0.0000 F   0  0  0  0  0  0  0  0  0  0  0  0
   -0.5746   -2.4666    0.0000 F   0  0  0  0  0  0  0  0  0  0  0  0
   -1.7016   -2.7686    0.0000 C   0  0  0  0  0  0  0  0  0  0  0  0
   -2.4160   -2.3561    0.0000 F   0  0  0  0  0  0  0  0  0  0  0  0
   -0.9871   -3.1811    0.0000 F   0  0  0  0  0  0  0  0  0  0  0  0
   -2.1141   -3.4830    0.0000 C   0  0  0  0  0  0  0  0  0  0  0  0
   -1.7016   -4.1975    0.0000 F   0  0  0  0  0  0  0  0  0  0  0  0
   -2.9391   -3.4830    0.0000 F   0  0  0  0  0  0  0  0  0  0  0  0
  1  2  1  0  0  0  0
  2  3  1  0  0  0  0
  3  4  1  0  0  0  0
  3  5  1  0  0  0  0
  3  6  1  0  0  0  0
  6  7  1  0  0  0  0
  6  8  1  0  0  0  0
  6  9  1  0  0  0  0
  9 10  1  0  0  0  0
  9 11  1  0  0  0  0
  9 12  1  0  0  0  0
 12 13  1  0  0  0  0
 12 14  1  0  0  0  0
 12 15  1  0  0  0  0
 15 16  1  0  0  0  0
 15 17  1  0  0  0  0
 15 18  1  0  0  0  0
 18 19  1  0  0  0  0
 18 20  1  0  0  0  0
 18 21  1  0  0  0  0
 21 22  1  0  0  0  0
 21 23  1  0  0  0  0
 21 24  1  0  0  0  0
 24 25  1  0  0  0  0
 24 26  1  0  0  0  0
 24 27  1  0  0  0  0
 27 28  1  0  0  0  0
 27 29  1  0  0  0  0
 27 30  1  0  0  0  0
 30 31  1  0  0  0  0
 30 32  1  0  0  0  0
M  END
> <ChemID>
202194

> <CAS>
307-70-0

> <Original_SMILES>
OCC(F)(F)C(F)(F)C(F)(F)C(F)(F)C(F)(F)C(F)(F)C(F)(F)C(F)(F)C(F)(F)C(F)F

> <preferred_name>
1-Undecanol, 2,2,3,3,4,4,5,5,6,6,7,7,8,8,9,9,10,10,11,11-eicosafluoro-

> <dsstox_substance_id>
DTXSID0059798

> <dsstox_compound_id>
DTXCID6038241

> <qc_level>


> <Canonical_QSARr>
OCC(F)(F)C(F)(F)C(F)(F)C(F)(F)C(F)(F)C(F)(F)C(F)(F)C(F)(F)C(F)(F)C(F)F

> <InChI_Code_QSARr>
InChI=1S/C11H4F20O/c12-2(13)4(16,17)6(20,21)8(24,25)10(28,29)11(30,31)9(26,27)7(22,23)5(18,19)3(14,15)1-32/h2,32H,1H2

> <InChI Key_QSARr>
GJYLSFCFHFUODO-UHFFFAOYSA-N

> <Salt_Solvent>


> <Salt_Solvent_ID>
0

> <MPID>
101604

> <Tr_1_Tst_0>
0

> <Ready_Biodeg>
0.0

$$$$
Row1570
  Mrv171c012251911052D          

 20 19  0  0  0  0            999 V2000
    0.7838    2.9293    0.0000 O   0  0  0  0  0  0  0  0  0  0  0  0
    1.1963    2.2149    0.0000 C   0  0  0  0  0  0  0  0  0  0  0  0
    0.7838    1.5004    0.0000 C   0  0  0  0  0  0  0  0  0  0  0  0
    0.0693    1.9129    0.0000 F   0  0  0  0  0  0  0  0  0  0  0  0
    1.4982    1.0879    0.0000 F   0  0  0  0  0  0  0  0  0  0  0  0
    0.3713    0.7859    0.0000 C   0  0  0  0  0  0  0  0  0  0  0  0
   -0.3432    1.1984    0.0000 F   0  0  0  0  0  0  0  0  0  0  0  0
    1.0857    0.3734    0.0000 F   0  0  0  0  0  0  0  0  0  0  0  0
   -0.0412    0.0714    0.0000 C   0  0  0  0  0  0  0  0  0  0  0  0
   -0.7557    0.4839    0.0000 F   0  0  0  0  0  0  0  0  0  0  0  0
    0.6732   -0.3411    0.0000 F   0  0  0  0  0  0  0  0  0  0  0  0
   -0.4537   -0.6430    0.0000 C   0  0  0  0  0  0  0  0  0  0  0  0
   -1.1682   -0.2305    0.0000 F   0  0  0  0  0  0  0  0  0  0  0  0
    0.2607   -1.0555    0.0000 F   0  0  0  0  0  0  0  0  0  0  0  0
   -0.8662   -1.3575    0.0000 C   0  0  0  0  0  0  0  0  0  0  0  0
   -1.5807   -0.9450    0.0000 F   0  0  0  0  0  0  0  0  0  0  0  0
   -0.1518   -1.7700    0.0000 F   0  0  0  0  0  0  0  0  0  0  0  0
   -1.2787   -2.0720    0.0000 C   0  0  0  0  0  0  0  0  0  0  0  0
   -0.8662   -2.7864    0.0000 F   0  0  0  0  0  0  0  0  0  0  0  0
   -2.1037   -2.0720    0.0000 F   0  0  0  0  0  0  0  0  0  0  0  0
  1  2  1  0  0  0  0
  2  3  1  0  0  0  0
  3  4  1  0  0  0  0
  3  5  1  0  0  0  0
  3  6  1  0  0  0  0
  6  7  1  0  0  0  0
  6  8  1  0  0  0  0
  6  9  1  0  0  0  0
  9 10  1  0  0  0  0
  9 11  1  0  0  0  0
  9 12  1  0  0  0  0
 12 13  1  0  0  0  0
 12 14  1  0  0  0  0
 12 15  1  0  0  0  0
 15 16  1  0  0  0  0
 15 17  1  0  0  0  0
 15 18  1  0  0  0  0
 18 19  1  0  0  0  0
 18 20  1  0  0  0  0
M  END
> <ChemID>
202195

> <CAS>
335-99-9

> <Original_SMILES>
OCC(F)(F)C(F)(F)C(F)(F)C(F)(F)C(F)(F)C(F)F

> <preferred_name>
1-Heptanol, 2,2,3,3,4,4,5,5,6,6,7,7-dodecafluoro-

> <dsstox_substance_id>
DTXSID9059832

> <dsstox_compound_id>
DTXCID3038696

> <qc_level>


> <Canonical_QSARr>
OCC(F)(F)C(F)(F)C(F)(F)C(F)(F)C(F)(F)C(F)F

> <InChI_Code_QSARr>
InChI=1S/C7H4F12O/c8-2(9)4(12,13)6(16,17)7(18,19)5(14,15)3(10,11)1-20/h2,20H,1H2

> <InChI Key_QSARr>
BYKNGMLDSIEFFG-UHFFFAOYSA-N

> <Salt_Solvent>


> <Salt_Solvent_ID>
0

> <MPID>
101605

> <Tr_1_Tst_0>
1

> <Ready_Biodeg>
0.0

$$$$
Row1571
  Mrv171c012251911052D          

 14 16  0  0  0  0            999 V2000
    0.5404    2.5886    0.0000 O   0  0  0  0  0  0  0  0  0  0  0  0
    0.5814    1.7646    0.0000 C   0  0  0  0  0  0  0  0  0  0  0  0
   -0.1117    1.3172    0.0000 C   0  0  0  0  0  0  0  0  0  0  0  0
   -0.2478    0.1568    0.0000 C   0  0  0  0  0  0  0  0  0  0  0  0
   -0.7713    0.0488    0.0000 C   0  0  0  0  0  0  0  0  0  0  0  0
    0.1114   -0.1580    0.0000 C   0  0  0  0  0  0  0  0  0  0  0  0
    0.2529    0.8707    0.0000 C   0  0  0  0  0  0  0  0  0  0  0  0
   -0.6097    1.4753    0.0000 C   0  0  0  0  0  0  0  0  0  0  0  0
   -1.4748    1.2971    0.0000 C   0  0  0  0  0  0  0  0  0  0  0  0
   -1.5634    0.4543    0.0000 C   0  0  0  0  0  0  0  0  0  0  0  0
    0.3764    1.3858    0.0000 C   0  0  0  0  0  0  0  0  0  0  0  0
    0.2885    0.3656    0.0000 C   0  0  0  0  0  0  0  0  0  0  0  0
    0.9284   -0.1552    0.0000 C   0  0  0  0  0  0  0  0  0  0  0  0
    1.6993    0.1386    0.0000 O   0  0  0  0  0  0  0  0  0  0  0  0
  1  2  1  0  0  0  0
  2  3  1  0  0  0  0
  4  3  1  0  0  0  0
  5  4  1  0  0  0  0
  5  6  1  0  0  0  0
  6  7  1  0  0  0  0
  7  8  1  0  0  0  0
  3  8  1  0  0  0  0
  9  8  1  0  0  0  0
 10  9  1  0  0  0  0
  5 10  1  0  0  0  0
  8 11  1  0  0  0  0
 11 12  1  0  0  0  0
 12  5  1  0  0  0  0
 12 13  1  0  0  0  0
 13 14  1  0  0  0  0
M  END
> <ChemID>
202198

> <CAS>
26896-48-0

> <Original_SMILES>
OCC1CC23CCC1(CC2CO)CC3

> <preferred_name>
Tricyclodecanedimethanol

> <dsstox_substance_id>
DTXSID9044900

> <dsstox_compound_id>
DTXCID7024900

> <qc_level>


> <Canonical_QSARr>
OCC1CC23CCC1(CC2CO)CC3

> <InChI_Code_QSARr>
InChI=1S/C12H20O2/c13-7-9-6-12-2-1-11(9,3-4-12)5-10(12)8-14/h9-10,13-14H,1-8H2

> <InChI Key_QSARr>
YGOKKVJEXURPMZ-UHFFFAOYSA-N

> <Salt_Solvent>


> <Salt_Solvent_ID>
0

> <MPID>
101606

> <Tr_1_Tst_0>
0

> <Ready_Biodeg>
0.0

$$$$
Row1572
  Mrv171c012251911052D          

  7  7  0  0  0  0            999 V2000
    0.7341    1.1310    0.0000 O   0  0  0  0  0  0  0  0  0  0  0  0
    0.0196    0.7185    0.0000 C   0  0  0  0  0  0  0  0  0  0  0  0
    0.0196   -0.1065    0.0000 C   0  0  0  0  0  0  0  0  0  0  0  0
   -0.6478   -0.5914    0.0000 C   0  0  0  0  0  0  0  0  0  0  0  0
   -0.3929   -1.3760    0.0000 C   0  0  0  0  0  0  0  0  0  0  0  0
    0.4321   -1.3760    0.0000 C   0  0  0  0  0  0  0  0  0  0  0  0
    0.6870   -0.5914    0.0000 O   0  0  0  0  0  0  0  0  0  0  0  0
  1  2  1  0  0  0  0
  2  3  1  0  0  0  0
  4  3  1  0  0  0  0
  5  4  1  0  0  0  0
  6  5  1  0  0  0  0
  7  6  1  0  0  0  0
  3  7  1  0  0  0  0
M  END
> <ChemID>
202199

> <CAS>
97-99-4

> <Original_SMILES>
OCC1CCCO1

> <preferred_name>
Tetrahydrofurfuryl alcohol

> <dsstox_substance_id>
DTXSID1029128

> <dsstox_compound_id>
DTXCID909128

> <qc_level>


> <Canonical_QSARr>
OCC1CCCO1

> <InChI_Code_QSARr>
InChI=1S/C5H10O2/c6-4-5-2-1-3-7-5/h5-6H,1-4H2

> <InChI Key_QSARr>
BSYVTEYKTMYBMK-UHFFFAOYSA-N

> <Salt_Solvent>


> <Salt_Solvent_ID>
0

> <MPID>
101607

> <Tr_1_Tst_0>
1

> <Ready_Biodeg>
1.0

$$$$
Row1573
  Mrv171c012251911052D          

  5  5  0  0  0  0            999 V2000
    0.3539    0.7986    0.0000 O   0  0  0  0  0  0  0  0  0  0  0  0
   -0.3605    0.3861    0.0000 C   0  0  0  0  0  0  0  0  0  0  0  0
   -0.3605   -0.4389    0.0000 C   0  0  0  0  0  0  0  0  0  0  0  0
   -0.7730   -1.1534    0.0000 C   0  0  0  0  0  0  0  0  0  0  0  0
    0.0520   -1.1534    0.0000 O   0  0  0  0  0  0  0  0  0  0  0  0
  1  2  1  0  0  0  0
  2  3  1  0  0  0  0
  4  3  1  0  0  0  0
  5  4  1  0  0  0  0
  3  5  1  0  0  0  0
M  END
> <ChemID>
202200

> <CAS>
556-52-5

> <Original_SMILES>
OCC1CO1

> <preferred_name>
Glycidol

> <dsstox_substance_id>
DTXSID4020666

> <dsstox_compound_id>
DTXCID60666

> <qc_level>


> <Canonical_QSARr>
OCC1CO1

> <InChI_Code_QSARr>
InChI=1S/C3H6O2/c4-1-3-2-5-3/h3-4H,1-2H2

> <InChI Key_QSARr>
CTKINSOISVBQLD-UHFFFAOYSA-N

> <Salt_Solvent>


> <Salt_Solvent_ID>
0

> <MPID>
101608

> <Tr_1_Tst_0>
1

> <Ready_Biodeg>
1.0

$$$$
Row1574
  Mrv171c012251911052D          

 28 27  0  0  0  0            999 V2000
    0.2500   -4.6259    0.0000 O   0  0  0  0  0  0  0  0  0  0  0  0
    0.2500   -3.8009    0.0000 C   0  0  0  0  0  0  0  0  0  0  0  0
    0.9644   -3.3884    0.0000 C   0  0  0  0  0  0  0  0  0  0  0  0
    0.9644   -2.5634    0.0000 C   0  0  0  0  0  0  0  0  0  0  0  0
    1.7894   -2.5634    0.0000 F   0  0  0  0  0  0  0  0  0  0  0  0
    0.1394   -2.5634    0.0000 F   0  0  0  0  0  0  0  0  0  0  0  0
    0.9644   -1.7384    0.0000 C   0  0  0  0  0  0  0  0  0  0  0  0
    1.7894   -1.7384    0.0000 F   0  0  0  0  0  0  0  0  0  0  0  0
    0.1394   -1.7384    0.0000 F   0  0  0  0  0  0  0  0  0  0  0  0
    0.9644   -0.9134    0.0000 C   0  0  0  0  0  0  0  0  0  0  0  0
    1.7894   -0.9134    0.0000 F   0  0  0  0  0  0  0  0  0  0  0  0
    0.1394   -0.9134    0.0000 F   0  0  0  0  0  0  0  0  0  0  0  0
    0.9644   -0.0884    0.0000 C   0  0  0  0  0  0  0  0  0  0  0  0
    1.7894   -0.0884    0.0000 F   0  0  0  0  0  0  0  0  0  0  0  0
    0.1394   -0.0884    0.0000 F   0  0  0  0  0  0  0  0  0  0  0  0
    0.9644    0.7366    0.0000 C   0  0  0  0  0  0  0  0  0  0  0  0
    1.7894    0.7366    0.0000 F   0  0  0  0  0  0  0  0  0  0  0  0
    0.1394    0.7366    0.0000 F   0  0  0  0  0  0  0  0  0  0  0  0
    0.9644    1.5616    0.0000 C   0  0  0  0  0  0  0  0  0  0  0  0
    1.7894    1.5616    0.0000 F   0  0  0  0  0  0  0  0  0  0  0  0
    0.1394    1.5616    0.0000 F   0  0  0  0  0  0  0  0  0  0  0  0
    0.9644    2.3866    0.0000 C   0  0  0  0  0  0  0  0  0  0  0  0
    1.7894    2.3866    0.0000 F   0  0  0  0  0  0  0  0  0  0  0  0
    0.1394    2.3866    0.0000 F   0  0  0  0  0  0  0  0  0  0  0  0
    0.9644    3.2116    0.0000 C   0  0  0  0  0  0  0  0  0  0  0  0
    0.9644    4.0366    0.0000 F   0  0  0  0  0  0  0  0  0  0  0  0
    1.7894    3.2116    0.0000 F   0  0  0  0  0  0  0  0  0  0  0  0
    0.1394    3.2116    0.0000 F   0  0  0  0  0  0  0  0  0  0  0  0
  1  2  1  0  0  0  0
  2  3  1  0  0  0  0
  3  4  1  0  0  0  0
  4  5  1  0  0  0  0
  4  6  1  0  0  0  0
  4  7  1  0  0  0  0
  7  8  1  0  0  0  0
  7  9  1  0  0  0  0
  7 10  1  0  0  0  0
 10 11  1  0  0  0  0
 10 12  1  0  0  0  0
 10 13  1  0  0  0  0
 13 14  1  0  0  0  0
 13 15  1  0  0  0  0
 13 16  1  0  0  0  0
 16 17  1  0  0  0  0
 16 18  1  0  0  0  0
 16 19  1  0  0  0  0
 19 20  1  0  0  0  0
 19 21  1  0  0  0  0
 19 22  1  0  0  0  0
 22 23  1  0  0  0  0
 22 24  1  0  0  0  0
 22 25  1  0  0  0  0
 25 26  1  0  0  0  0
 25 27  1  0  0  0  0
 25 28  1  0  0  0  0
M  END
> <ChemID>
202202

> <CAS>
678-39-7

> <Original_SMILES>
OCCC(F)(F)C(F)(F)C(F)(F)C(F)(F)C(F)(F)C(F)(F)C(F)(F)C(F)(F)F

> <preferred_name>
1,1,2,2-Tetrahydroperfluoro-1-decanol

> <dsstox_substance_id>
DTXSID7029904

> <dsstox_compound_id>
DTXCID309904

> <qc_level>


> <Canonical_QSARr>
OCCC(F)(F)C(F)(F)C(F)(F)C(F)(F)C(F)(F)C(F)(F)C(F)(F)C(F)(F)F

> <InChI_Code_QSARr>
InChI=1S/C10H5F17O/c11-3(12,1-2-28)4(13,14)5(15,16)6(17,18)7(19,20)8(21,22)9(23,24)10(25,26)27/h28H,1-2H2

> <InChI Key_QSARr>
JJUBFBTUBACDHW-UHFFFAOYSA-N

> <Salt_Solvent>


> <Salt_Solvent_ID>
0

> <MPID>
101609

> <Tr_1_Tst_0>
0

> <Ready_Biodeg>
0.0

$$$$
Row1575
  Mrv171c012251911052D          

 18 18  0  0  0  0            999 V2000
   -5.1119   -0.8250    0.0000 O   0  0  0  0  0  0  0  0  0  0  0  0
   -4.3974   -0.4125    0.0000 C   0  0  0  0  0  0  0  0  0  0  0  0
   -3.6830   -0.8250    0.0000 C   0  0  0  0  0  0  0  0  0  0  0  0
   -2.9685   -0.4125    0.0000 O   0  0  0  0  0  0  0  0  0  0  0  0
   -2.2540   -0.8250    0.0000 C   0  0  0  0  0  0  0  0  0  0  0  0
   -2.2540   -1.6500    0.0000 O   0  0  0  0  0  0  0  0  0  0  0  0
   -1.5396   -0.4125    0.0000 C   0  0  0  0  0  0  0  0  0  0  0  0
   -0.8251   -0.8250    0.0000 C   0  0  0  0  0  0  0  0  0  0  0  0
   -0.1106   -0.4125    0.0000 C   0  0  0  0  0  0  0  0  0  0  0  0
   -0.1106    0.4125    0.0000 C   0  0  0  0  0  0  0  0  0  0  0  0
    0.6039    0.8250    0.0000 C   0  0  0  0  0  0  0  0  0  0  0  0
    0.6039    1.6500    0.0000 O   0  0  0  0  0  0  0  0  0  0  0  0
    1.3183    0.4125    0.0000 O   0  0  0  0  0  0  0  0  0  0  0  0
    2.0328    0.8250    0.0000 C   0  0  0  0  0  0  0  0  0  0  0  0
    2.7473    0.4125    0.0000 C   0  0  0  0  0  0  0  0  0  0  0  0
    3.4617    0.8250    0.0000 O   0  0  0  0  0  0  0  0  0  0  0  0
   -0.8251    0.8250    0.0000 C   0  0  0  0  0  0  0  0  0  0  0  0
   -1.5396    0.4125    0.0000 C   0  0  0  0  0  0  0  0  0  0  0  0
  1  2  1  0  0  0  0
  2  3  1  0  0  0  0
  3  4  1  0  0  0  0
  4  5  1  0  0  0  0
  5  6  2  0  0  0  0
  5  7  1  0  0  0  0
  8  7  2  0  0  0  0
  9  8  1  0  0  0  0
 10  9  2  0  0  0  0
 10 11  1  0  0  0  0
 11 12  2  0  0  0  0
 11 13  1  0  0  0  0
 13 14  1  0  0  0  0
 14 15  1  0  0  0  0
 15 16  1  0  0  0  0
 17 10  1  0  0  0  0
 18 17  2  0  0  0  0
  7 18  1  0  0  0  0
M  END
> <ChemID>
202210

> <CAS>
959-26-2

> <Original_SMILES>
OCCOC(=O)c1ccc(cc1)C(=O)OCCO

> <preferred_name>
bis(Hydroxyethyl) terephthalate

> <dsstox_substance_id>
DTXSID3052644

> <dsstox_compound_id>
DTXCID0031217

> <qc_level>


> <Canonical_QSARr>
OCCOC(=O)C1C=CC(=CC=1)C(=O)OCCO

> <InChI_Code_QSARr>
InChI=1S/C12H14O6/c13-5-7-17-11(15)9-1-2-10(4-3-9)12(16)18-8-6-14/h1-4,13-14H,5-8H2

> <InChI Key_QSARr>
QPKOBORKPHRBPS-UHFFFAOYSA-N

> <Salt_Solvent>


> <Salt_Solvent_ID>
0

> <MPID>
101610

> <Tr_1_Tst_0>
0

> <Ready_Biodeg>
1.0

$$$$
Row1576
  Mrv171c012251911052D          

 31 33  0  0  0  0            999 V2000
   -0.6718   -0.8450    0.0000 O   0  0  0  0  0  0  0  0  0  0  0  0
   -1.3863   -0.4325    0.0000 S   0  0  0  0  0  0  0  0  0  0  0  0
   -1.7988   -1.1470    0.0000 O   0  0  0  0  0  0  0  0  0  0  0  0
   -0.9738    0.2820    0.0000 O   0  0  0  0  0  0  0  0  0  0  0  0
   -2.1007   -0.0200    0.0000 C   0  0  0  0  0  0  0  0  0  0  0  0
   -2.1007    0.8050    0.0000 C   0  0  0  0  0  0  0  0  0  0  0  0
   -2.8152    1.2175    0.0000 C   0  0  0  0  0  0  0  0  0  0  0  0
   -2.8152    2.0425    0.0000 Cl  0  0  0  0  0  0  0  0  0  0  0  0
   -3.5297    0.8050    0.0000 C   0  0  0  0  0  0  0  0  0  0  0  0
   -3.5297   -0.0200    0.0000 C   0  0  0  0  0  0  0  0  0  0  0  0
   -2.8152   -0.4325    0.0000 C   0  0  0  0  0  0  0  0  0  0  0  0
   -2.8152   -1.2575    0.0000 O   0  0  0  0  0  0  0  0  0  0  0  0
   -3.5297   -1.6700    0.0000 C   0  0  0  0  0  0  0  0  0  0  0  0
   -4.2442   -1.2575    0.0000 C   0  0  0  0  0  0  0  0  0  0  0  0
   -4.9586   -1.6700    0.0000 C   0  0  0  0  0  0  0  0  0  0  0  0
   -4.9586   -2.4950    0.0000 C   0  0  0  0  0  0  0  0  0  0  0  0
   -5.6731   -2.9075    0.0000 Cl  0  0  0  0  0  0  0  0  0  0  0  0
   -4.2442   -2.9075    0.0000 C   0  0  0  0  0  0  0  0  0  0  0  0
   -3.5297   -2.4950    0.0000 C   0  0  0  0  0  0  0  0  0  0  0  0
   -2.8152   -2.9075    0.0000 N   0  0  0  0  0  0  0  0  0  0  0  0
   -2.1007   -2.4950    0.0000 C   0  0  0  0  0  0  0  0  0  0  0  0
   -2.1007   -1.6700    0.0000 O   0  0  0  0  0  0  0  0  0  0  0  0
   -1.3863   -2.9075    0.0000 N   0  0  0  0  0  0  0  0  0  0  0  0
   -0.6718   -2.4950    0.0000 C   0  0  0  0  0  0  0  0  0  0  0  0
    0.0427   -2.9075    0.0000 C   0  0  0  0  0  0  0  0  0  0  0  0
    0.7571   -2.4950    0.0000 C   0  0  0  0  0  0  0  0  0  0  0  0
    0.7571   -1.6700    0.0000 C   0  0  0  0  0  0  0  0  0  0  0  0
    1.4716   -1.2575    0.0000 Cl  0  0  0  0  0  0  0  0  0  0  0  0
    0.0427   -1.2575    0.0000 C   0  0  0  0  0  0  0  0  0  0  0  0
    0.0427   -0.4325    0.0000 Cl  0  0  0  0  0  0  0  0  0  0  0  0
   -0.6718   -1.6700    0.0000 C   0  0  0  0  0  0  0  0  0  0  0  0
  1  2  1  0  0  0  0
  2  3  2  0  0  0  0
  2  4  2  0  0  0  0
  2  5  1  0  0  0  0
  6  5  2  0  0  0  0
  7  6  1  0  0  0  0
  7  8  1  0  0  0  0
  9  7  2  0  0  0  0
 10  9  1  0  0  0  0
 11 10  2  0  0  0  0
  5 11  1  0  0  0  0
 11 12  1  0  0  0  0
 12 13  1  0  0  0  0
 14 13  2  0  0  0  0
 15 14  1  0  0  0  0
 16 15  2  0  0  0  0
 16 17  1  0  0  0  0
 18 16  1  0  0  0  0
 19 18  2  0  0  0  0
 13 19  1  0  0  0  0
 19 20  1  0  0  0  0
 20 21  1  0  0  0  0
 21 22  2  0  0  0  0
 21 23  1  0  0  0  0
 23 24  1  0  0  0  0
 25 24  2  0  0  0  0
 26 25  1  0  0  0  0
 27 26  2  0  0  0  0
 27 28  1  0  0  0  0
 29 27  1  0  0  0  0
 29 30  1  0  0  0  0
 31 29  2  0  0  0  0
 24 31  1  0  0  0  0
M  END
> <ChemID>
202215

> <CAS>
24019-05-4

> <Original_SMILES>
OS(=O)(=O)c1cc(Cl)ccc1Oc1ccc(Cl)cc1NC(=O)Nc1cc(Cl)c(Cl)cc1

> <preferred_name>
Sulcofuron

> <dsstox_substance_id>
DTXSID9058656

> <dsstox_compound_id>
DTXCID7032341

> <qc_level>


> <Canonical_QSARr>
OS(=O)(=O)C1=CC(Cl)=CC=C1OC1=CC=C(Cl)C=C1NC(=O)NC1C=C(Cl)C(Cl)=CC=1

> <InChI_Code_QSARr>
InChI=1S/C19H12Cl4N2O5S/c20-10-1-5-16(30-17-6-2-11(21)8-18(17)31(27,28)29)15(7-10)25-19(26)24-12-3-4-13(22)14(23)9-12/h1-9H,(H2,24,25,26)(H,27,28,29)

> <InChI Key_QSARr>
MKUMTCOTMQPYTQ-UHFFFAOYSA-N

> <Salt_Solvent>


> <Salt_Solvent_ID>
0

> <MPID>
101611

> <Tr_1_Tst_0>
1

> <Ready_Biodeg>
0.0

$$$$
Row1577
  Mrv171c012251911052D          

 12 12  0  0  0  0            999 V2000
    0.6039    0.8250    0.0000 O   0  0  0  0  0  0  0  0  0  0  0  0
   -0.1105    0.4125    0.0000 C   0  0  0  0  0  0  0  0  0  0  0  0
   -0.8250    0.8250    0.0000 C   0  0  0  0  0  0  0  0  0  0  0  0
   -0.8250    1.6500    0.0000 Br  0  0  0  0  0  0  0  0  0  0  0  0
   -1.5395    0.4125    0.0000 C   0  0  0  0  0  0  0  0  0  0  0  0
   -2.2540    0.8250    0.0000 Br  0  0  0  0  0  0  0  0  0  0  0  0
   -1.5395   -0.4125    0.0000 C   0  0  0  0  0  0  0  0  0  0  0  0
   -2.2540   -0.8250    0.0000 Br  0  0  0  0  0  0  0  0  0  0  0  0
   -0.8250   -0.8250    0.0000 C   0  0  0  0  0  0  0  0  0  0  0  0
   -0.8250   -1.6500    0.0000 Br  0  0  0  0  0  0  0  0  0  0  0  0
   -0.1105   -0.4125    0.0000 C   0  0  0  0  0  0  0  0  0  0  0  0
    0.6039   -0.8250    0.0000 Br  0  0  0  0  0  0  0  0  0  0  0  0
  1  2  1  0  0  0  0
  3  2  2  0  0  0  0
  3  4  1  0  0  0  0
  5  3  1  0  0  0  0
  5  6  1  0  0  0  0
  7  5  2  0  0  0  0
  7  8  1  0  0  0  0
  9  7  1  0  0  0  0
  9 10  1  0  0  0  0
 11  9  2  0  0  0  0
  2 11  1  0  0  0  0
 11 12  1  0  0  0  0
M  END
> <ChemID>
202217

> <CAS>
608-71-9

> <Original_SMILES>
Oc1c(Br)c(Br)c(Br)c(Br)c1Br

> <preferred_name>
Pentabromophenol

> <dsstox_substance_id>
DTXSID9022079

> <dsstox_compound_id>
DTXCID902079

> <qc_level>


> <Canonical_QSARr>
OC1C(Br)=C(Br)C(Br)=C(Br)C=1Br

> <InChI_Code_QSARr>
InChI=1S/C6HBr5O/c7-1-2(8)4(10)6(12)5(11)3(1)9/h12H

> <InChI Key_QSARr>
SVHOVVJFOWGYJO-UHFFFAOYSA-N

> <Salt_Solvent>


> <Salt_Solvent_ID>
0

> <MPID>
101612

> <Tr_1_Tst_0>
1

> <Ready_Biodeg>
0.0

$$$$
Row1578
  Mrv171c012251911052D          

 23 26  0  0  0  0            999 V2000
    0.3218   -2.0152    0.0000 O   0  0  0  0  0  0  0  0  0  0  0  0
   -0.0907   -1.3007    0.0000 C   0  0  0  0  0  0  0  0  0  0  0  0
   -0.9157   -1.3007    0.0000 C   0  0  0  0  0  0  0  0  0  0  0  0
   -1.3282   -2.0152    0.0000 Br  0  0  0  0  0  0  0  0  0  0  0  0
   -1.3282   -0.5862    0.0000 C   0  0  0  0  0  0  0  0  0  0  0  0
   -2.1532   -0.5862    0.0000 C   0  0  0  0  0  0  0  0  0  0  0  0
   -2.5657    0.1282    0.0000 C   0  0  0  0  0  0  0  0  0  0  0  0
   -2.1532    0.8427    0.0000 C   0  0  0  0  0  0  0  0  0  0  0  0
   -1.3282    0.8427    0.0000 C   0  0  0  0  0  0  0  0  0  0  0  0
   -0.9157    0.1282    0.0000 C   0  0  0  0  0  0  0  0  0  0  0  0
   -0.0907    0.1282    0.0000 N   0  0  0  0  0  0  0  0  0  0  0  0
    0.3218   -0.5862    0.0000 C   0  0  0  0  0  0  0  0  0  0  0  0
    1.1468   -0.5862    0.0000 C   0  0  0  0  0  0  0  0  0  0  0  0
    1.6317    0.0812    0.0000 C   0  0  0  0  0  0  0  0  0  0  0  0
    1.3768    0.8658    0.0000 O   0  0  0  0  0  0  0  0  0  0  0  0
    2.4164   -0.1737    0.0000 C   0  0  0  0  0  0  0  0  0  0  0  0
    3.1308    0.2388    0.0000 C   0  0  0  0  0  0  0  0  0  0  0  0
    3.8453   -0.1737    0.0000 C   0  0  0  0  0  0  0  0  0  0  0  0
    3.8453   -0.9987    0.0000 C   0  0  0  0  0  0  0  0  0  0  0  0
    3.1308   -1.4112    0.0000 C   0  0  0  0  0  0  0  0  0  0  0  0
    2.4164   -0.9987    0.0000 C   0  0  0  0  0  0  0  0  0  0  0  0
    1.6317   -1.2537    0.0000 C   0  0  0  0  0  0  0  0  0  0  0  0
    1.3768   -2.0383    0.0000 O   0  0  0  0  0  0  0  0  0  0  0  0
  1  2  1  0  0  0  0
  3  2  2  0  0  0  0
  3  4  1  0  0  0  0
  5  3  1  0  0  0  0
  5  6  2  0  0  0  0
  6  7  1  0  0  0  0
  7  8  2  0  0  0  0
  8  9  1  0  0  0  0
  9 10  2  0  0  0  0
 10  5  1  0  0  0  0
 11 10  1  0  0  0  0
 12 11  2  0  0  0  0
  2 12  1  0  0  0  0
 12 13  1  0  0  0  0
 14 13  1  0  0  0  0
 14 15  2  0  0  0  0
 16 14  1  0  0  0  0
 16 17  2  0  0  0  0
 17 18  1  0  0  0  0
 18 19  2  0  0  0  0
 19 20  1  0  0  0  0
 20 21  2  0  0  0  0
 21 16  1  0  0  0  0
 22 21  1  0  0  0  0
 13 22  1  0  0  0  0
 22 23  2  0  0  0  0
M  END
> <ChemID>
202218

> <CAS>
10319-14-9

> <Original_SMILES>
Oc1c(Br)c2ccccc2[n]c1C1C(=O)c2ccccc2C1=O

> <preferred_name>
C.I. Disperse Yellow 64

> <dsstox_substance_id>
DTXSID2044503

> <dsstox_compound_id>
DTXCID0024503

> <qc_level>


> <Canonical_QSARr>
OC1=C(Br)C2=CC=CC=C2N=C1C1C(=O)C2=CC=CC=C2C1=O

> <InChI_Code_QSARr>
InChI=1S/C18H10BrNO3/c19-14-11-7-3-4-8-12(11)20-15(18(14)23)13-16(21)9-5-1-2-6-10(9)17(13)22/h1-8,13,23H

> <InChI Key_QSARr>
DVBLPJWQXDCAKU-UHFFFAOYSA-N

> <Salt_Solvent>


> <Salt_Solvent_ID>
0

> <MPID>
101613

> <Tr_1_Tst_0>
0

> <Ready_Biodeg>
0.0

$$$$
Row1579
  Mrv171c012251911052D          

 19 21  0  0  0  0            999 V2000
    2.1136    0.5149    0.0000 O   0  0  0  0  0  0  0  0  0  0  0  0
    1.3991    0.1024    0.0000 C   0  0  0  0  0  0  0  0  0  0  0  0
    0.6847    0.5149    0.0000 C   0  0  0  0  0  0  0  0  0  0  0  0
    0.6847    1.3399    0.0000 C   0  0  0  0  0  0  0  0  0  0  0  0
    1.3991    1.7524    0.0000 C   0  0  0  0  0  0  0  0  0  0  0  0
    1.3991    2.5774    0.0000 C   0  0  0  0  0  0  0  0  0  0  0  0
    0.6847    2.9899    0.0000 C   0  0  0  0  0  0  0  0  0  0  0  0
   -0.0298    2.5774    0.0000 C   0  0  0  0  0  0  0  0  0  0  0  0
   -0.0298    1.7524    0.0000 C   0  0  0  0  0  0  0  0  0  0  0  0
   -0.0298    0.1024    0.0000 C   0  0  0  0  0  0  0  0  0  0  0  0
   -0.0298   -0.7226    0.0000 C   0  0  0  0  0  0  0  0  0  0  0  0
    0.6847   -1.1351    0.0000 C   0  0  0  0  0  0  0  0  0  0  0  0
    1.3991   -0.7226    0.0000 C   0  0  0  0  0  0  0  0  0  0  0  0
    2.1136   -1.1351    0.0000 C   0  0  0  0  0  0  0  0  0  0  0  0
    2.1136   -1.9601    0.0000 C   0  0  0  0  0  0  0  0  0  0  0  0
    2.8281   -2.3726    0.0000 C   0  0  0  0  0  0  0  0  0  0  0  0
    3.5425   -1.9601    0.0000 C   0  0  0  0  0  0  0  0  0  0  0  0
    3.5425   -1.1351    0.0000 C   0  0  0  0  0  0  0  0  0  0  0  0
    2.8281   -0.7226    0.0000 C   0  0  0  0  0  0  0  0  0  0  0  0
  1  2  1  0  0  0  0
  3  2  2  0  0  0  0
  3  4  1  0  0  0  0
  5  4  1  0  0  0  0
  6  5  1  0  0  0  0
  7  6  1  0  0  0  0
  8  7  1  0  0  0  0
  9  8  1  0  0  0  0
  4  9  1  0  0  0  0
 10  3  1  0  0  0  0
 11 10  2  0  0  0  0
 12 11  1  0  0  0  0
 13 12  2  0  0  0  0
  2 13  1  0  0  0  0
 13 14  1  0  0  0  0
 15 14  1  0  0  0  0
 16 15  1  0  0  0  0
 17 16  1  0  0  0  0
 18 17  1  0  0  0  0
 19 18  1  0  0  0  0
 14 19  1  0  0  0  0
M  END
> <ChemID>
202224

> <CAS>
4821-19-6

> <Original_SMILES>
Oc1c(cccc1C1CCCCC1)C1CCCCC1

> <preferred_name>
2,6-Dicyclohexylphenol

> <dsstox_substance_id>
DTXSID60197465

> <dsstox_compound_id>
DTXCID70119956

> <qc_level>


> <Canonical_QSARr>
OC1C(=CC=CC=1C1CCCCC1)C1CCCCC1

> <InChI_Code_QSARr>
InChI=1S/C18H26O/c19-18-16(14-8-3-1-4-9-14)12-7-13-17(18)15-10-5-2-6-11-15/h7,12-15,19H,1-6,8-11H2

> <InChI Key_QSARr>
AUEZNTKYSSUTGZ-UHFFFAOYSA-N

> <Salt_Solvent>


> <Salt_Solvent_ID>
0

> <MPID>
101614

> <Tr_1_Tst_0>
1

> <Ready_Biodeg>
0.0

$$$$
Row1580
  Mrv171c012251911052D          

 16 17  0  0  0  0            999 V2000
    0.0600   -2.6562    0.0000 O   0  0  0  0  0  0  0  0  0  0  0  0
    0.0600   -1.8312    0.0000 C   0  0  0  0  0  0  0  0  0  0  0  0
    0.7745   -1.4187    0.0000 C   0  0  0  0  0  0  0  0  0  0  0  0
    0.7745   -0.5937    0.0000 C   0  0  0  0  0  0  0  0  0  0  0  0
    0.0600   -0.1812    0.0000 C   0  0  0  0  0  0  0  0  0  0  0  0
    0.0600    0.6438    0.0000 C   0  0  0  0  0  0  0  0  0  0  0  0
    0.7745    1.0563    0.0000 O   0  0  0  0  0  0  0  0  0  0  0  0
   -0.6545    1.0563    0.0000 C   0  0  0  0  0  0  0  0  0  0  0  0
   -0.6545    1.8813    0.0000 C   0  0  0  0  0  0  0  0  0  0  0  0
   -1.3689    2.2938    0.0000 C   0  0  0  0  0  0  0  0  0  0  0  0
   -2.0834    1.8813    0.0000 C   0  0  0  0  0  0  0  0  0  0  0  0
   -2.0834    1.0563    0.0000 C   0  0  0  0  0  0  0  0  0  0  0  0
   -1.3689    0.6438    0.0000 C   0  0  0  0  0  0  0  0  0  0  0  0
   -0.6545   -0.5937    0.0000 C   0  0  0  0  0  0  0  0  0  0  0  0
   -1.3689   -0.1812    0.0000 O   0  0  0  0  0  0  0  0  0  0  0  0
   -0.6545   -1.4187    0.0000 C   0  0  0  0  0  0  0  0  0  0  0  0
  1  2  1  0  0  0  0
  3  2  2  0  0  0  0
  4  3  1  0  0  0  0
  5  4  2  0  0  0  0
  5  6  1  0  0  0  0
  6  7  2  0  0  0  0
  6  8  1  0  0  0  0
  9  8  2  0  0  0  0
 10  9  1  0  0  0  0
 11 10  2  0  0  0  0
 12 11  1  0  0  0  0
 13 12  2  0  0  0  0
  8 13  1  0  0  0  0
 14  5  1  0  0  0  0
 14 15  1  0  0  0  0
 16 14  2  0  0  0  0
  2 16  1  0  0  0  0
M  END
> <ChemID>
202235

> <CAS>
131-56-6

> <Original_SMILES>
Oc1cc(O)c(cc1)C(=O)c1ccccc1

> <preferred_name>
2,4-Dihydroxybenzophenone

> <dsstox_substance_id>
DTXSID8022406

> <dsstox_compound_id>
DTXCID402406

> <qc_level>


> <Canonical_QSARr>
OC1C=C(O)C(=CC=1)C(=O)C1C=CC=CC=1

> <InChI_Code_QSARr>
InChI=1S/C13H10O3/c14-10-6-7-11(12(15)8-10)13(16)9-4-2-1-3-5-9/h1-8,14-15H

> <InChI Key_QSARr>
ZXDDPOHVAMWLBH-UHFFFAOYSA-N

> <Salt_Solvent>


> <Salt_Solvent_ID>
0

> <MPID>
101615

> <Tr_1_Tst_0>
1

> <Ready_Biodeg>
0.0

$$$$
Row1581
  Mrv171c012251911052D          

 16 17  0  0  0  0            999 V2000
   -0.5298   -2.0989    0.0000 O   0  0  0  0  0  0  0  0  0  0  0  0
    0.1847   -1.6864    0.0000 C   0  0  0  0  0  0  0  0  0  0  0  0
    0.8992   -2.0989    0.0000 C   0  0  0  0  0  0  0  0  0  0  0  0
    1.6136   -1.6864    0.0000 C   0  0  0  0  0  0  0  0  0  0  0  0
    1.6136   -0.8614    0.0000 C   0  0  0  0  0  0  0  0  0  0  0  0
    0.8992   -0.4489    0.0000 C   0  0  0  0  0  0  0  0  0  0  0  0
    0.8992    0.3761    0.0000 O   0  0  0  0  0  0  0  0  0  0  0  0
    1.6136    0.7886    0.0000 C   0  0  0  0  0  0  0  0  0  0  0  0
    2.3281    0.3761    0.0000 O   0  0  0  0  0  0  0  0  0  0  0  0
    1.6136    1.6136    0.0000 C   0  0  0  0  0  0  0  0  0  0  0  0
    2.3281    2.0261    0.0000 C   0  0  0  0  0  0  0  0  0  0  0  0
    2.3281    2.8511    0.0000 C   0  0  0  0  0  0  0  0  0  0  0  0
    1.6136    3.2636    0.0000 C   0  0  0  0  0  0  0  0  0  0  0  0
    0.8992    2.8511    0.0000 C   0  0  0  0  0  0  0  0  0  0  0  0
    0.8992    2.0261    0.0000 C   0  0  0  0  0  0  0  0  0  0  0  0
    0.1847   -0.8614    0.0000 C   0  0  0  0  0  0  0  0  0  0  0  0
  1  2  1  0  0  0  0
  3  2  2  0  0  0  0
  4  3  1  0  0  0  0
  5  4  2  0  0  0  0
  6  5  1  0  0  0  0
  6  7  1  0  0  0  0
  7  8  1  0  0  0  0
  8  9  2  0  0  0  0
  8 10  1  0  0  0  0
 11 10  2  0  0  0  0
 12 11  1  0  0  0  0
 13 12  2  0  0  0  0
 14 13  1  0  0  0  0
 15 14  2  0  0  0  0
 10 15  1  0  0  0  0
 16  6  2  0  0  0  0
  2 16  1  0  0  0  0
M  END
> <ChemID>
202237

> <CAS>
136-36-7

> <Original_SMILES>
Oc1cc(ccc1)OC(=O)c1ccccc1

> <preferred_name>
Resorcinol monobenzoate

> <dsstox_substance_id>
DTXSID1038878

> <dsstox_compound_id>
DTXCID9018878

> <qc_level>


> <Canonical_QSARr>
OC1C=C(C=CC=1)OC(=O)C1C=CC=CC=1

> <InChI_Code_QSARr>
InChI=1S/C13H10O3/c14-11-7-4-8-12(9-11)16-13(15)10-5-2-1-3-6-10/h1-9,14H

> <InChI Key_QSARr>
GDESWOTWNNGOMW-UHFFFAOYSA-N

> <Salt_Solvent>


> <Salt_Solvent_ID>
0

> <MPID>
101616

> <Tr_1_Tst_0>
1

> <Ready_Biodeg>
1.0

$$$$
Row1582
  Mrv171c012251911052D          

  9  9  0  0  0  0            999 V2000
    0.6752   -1.7998    0.0000 O   0  0  0  0  0  0  0  0  0  0  0  0
    0.6752   -0.9748    0.0000 C   0  0  0  0  0  0  0  0  0  0  0  0
    1.3897   -0.5623    0.0000 C   0  0  0  0  0  0  0  0  0  0  0  0
    1.3897    0.2627    0.0000 C   0  0  0  0  0  0  0  0  0  0  0  0
    0.6752    0.6752    0.0000 C   0  0  0  0  0  0  0  0  0  0  0  0
    0.6752    1.5002    0.0000 C   0  0  0  0  0  0  0  0  0  0  0  0
   -0.0392    1.9127    0.0000 O   0  0  0  0  0  0  0  0  0  0  0  0
   -0.0392    0.2627    0.0000 C   0  0  0  0  0  0  0  0  0  0  0  0
   -0.0392   -0.5623    0.0000 C   0  0  0  0  0  0  0  0  0  0  0  0
  1  2  1  0  0  0  0
  3  2  2  0  0  0  0
  4  3  1  0  0  0  0
  5  4  2  0  0  0  0
  5  6  1  0  0  0  0
  6  7  2  0  0  0  0
  8  5  1  0  0  0  0
  9  8  2  0  0  0  0
  2  9  1  0  0  0  0
M  END
> <ChemID>
202242

> <CAS>
123-08-0

> <Original_SMILES>
Oc1ccc(C=O)cc1

> <preferred_name>
p-Hydroxybenzaldehyde

> <dsstox_substance_id>
DTXSID8059552

> <dsstox_compound_id>
DTXCID7033787

> <qc_level>


> <Canonical_QSARr>
OC1=CC=C(C=C1)C=O

> <InChI_Code_QSARr>
InChI=1S/C7H6O2/c8-5-6-1-3-7(9)4-2-6/h1-5,9H

> <InChI Key_QSARr>
RGHHSNMVTDWUBI-UHFFFAOYSA-N

> <Salt_Solvent>


> <Salt_Solvent_ID>
0

> <MPID>
101617

> <Tr_1_Tst_0>
0

> <Ready_Biodeg>
1.0

$$$$
Row1583
  Mrv171c012251911052D          

 15 16  0  0  0  0            999 V2000
    0.7621   -2.8600    0.0000 O   0  0  0  0  0  0  0  0  0  0  0  0
    0.7621   -2.0350    0.0000 C   0  0  0  0  0  0  0  0  0  0  0  0
    1.4766   -1.6225    0.0000 C   0  0  0  0  0  0  0  0  0  0  0  0
    1.4766   -0.7975    0.0000 C   0  0  0  0  0  0  0  0  0  0  0  0
    0.7621   -0.3850    0.0000 C   0  0  0  0  0  0  0  0  0  0  0  0
    0.7621    0.4400    0.0000 C   0  0  0  0  0  0  0  0  0  0  0  0
    0.0476    0.8525    0.0000 C   0  0  0  0  0  0  0  0  0  0  0  0
    0.0476    1.6775    0.0000 C   0  0  0  0  0  0  0  0  0  0  0  0
   -0.6668    2.0900    0.0000 C   0  0  0  0  0  0  0  0  0  0  0  0
   -1.3813    1.6775    0.0000 C   0  0  0  0  0  0  0  0  0  0  0  0
   -2.0958    2.0900    0.0000 O   0  0  0  0  0  0  0  0  0  0  0  0
   -1.3813    0.8525    0.0000 C   0  0  0  0  0  0  0  0  0  0  0  0
   -0.6668    0.4400    0.0000 C   0  0  0  0  0  0  0  0  0  0  0  0
    0.0476   -0.7975    0.0000 C   0  0  0  0  0  0  0  0  0  0  0  0
    0.0476   -1.6225    0.0000 C   0  0  0  0  0  0  0  0  0  0  0  0
  1  2  1  0  0  0  0
  3  2  2  0  0  0  0
  4  3  1  0  0  0  0
  5  4  2  0  0  0  0
  5  6  1  0  0  0  0
  6  7  1  0  0  0  0
  8  7  2  0  0  0  0
  9  8  1  0  0  0  0
 10  9  2  0  0  0  0
 10 11  1  0  0  0  0
 12 10  1  0  0  0  0
 13 12  2  0  0  0  0
  7 13  1  0  0  0  0
 14  5  1  0  0  0  0
 15 14  2  0  0  0  0
  2 15  1  0  0  0  0
M  END
> <ChemID>
202243

> <CAS>
620-92-8

> <Original_SMILES>
Oc1ccc(Cc2ccc(O)cc2)cc1

> <preferred_name>
Bis(4-hydroxyphenyl)methane

> <dsstox_substance_id>
DTXSID9022445

> <dsstox_compound_id>
DTXCID202445

> <qc_level>


> <Canonical_QSARr>
OC1C=CC(CC2C=CC(O)=CC=2)=CC=1

> <InChI_Code_QSARr>
InChI=1S/C13H12O2/c14-12-5-1-10(2-6-12)9-11-3-7-13(15)8-4-11/h1-8,14-15H,9H2

> <InChI Key_QSARr>
PXKLMJQFEQBVLD-UHFFFAOYSA-N

> <Salt_Solvent>


> <Salt_Solvent_ID>
0

> <MPID>
101618

> <Tr_1_Tst_0>
1

> <Ready_Biodeg>
0.0

$$$$
Row1584
  Mrv171c012251911052D          

 14 15  0  0  0  0            999 V2000
   -0.4125   -2.8875    0.0000 O   0  0  0  0  0  0  0  0  0  0  0  0
   -0.4125   -2.0625    0.0000 C   0  0  0  0  0  0  0  0  0  0  0  0
    0.3020   -1.6500    0.0000 C   0  0  0  0  0  0  0  0  0  0  0  0
    0.3020   -0.8250    0.0000 C   0  0  0  0  0  0  0  0  0  0  0  0
   -0.4125   -0.4125    0.0000 C   0  0  0  0  0  0  0  0  0  0  0  0
   -0.4125    0.4125    0.0000 C   0  0  0  0  0  0  0  0  0  0  0  0
    0.3020    0.8250    0.0000 C   0  0  0  0  0  0  0  0  0  0  0  0
    0.3020    1.6500    0.0000 C   0  0  0  0  0  0  0  0  0  0  0  0
   -0.4125    2.0625    0.0000 C   0  0  0  0  0  0  0  0  0  0  0  0
   -0.4125    2.8875    0.0000 O   0  0  0  0  0  0  0  0  0  0  0  0
   -1.1270    1.6500    0.0000 C   0  0  0  0  0  0  0  0  0  0  0  0
   -1.1270    0.8250    0.0000 C   0  0  0  0  0  0  0  0  0  0  0  0
   -1.1270   -0.8250    0.0000 C   0  0  0  0  0  0  0  0  0  0  0  0
   -1.1270   -1.6500    0.0000 C   0  0  0  0  0  0  0  0  0  0  0  0
  1  2  1  0  0  0  0
  3  2  2  0  0  0  0
  4  3  1  0  0  0  0
  5  4  2  0  0  0  0
  5  6  1  0  0  0  0
  7  6  2  0  0  0  0
  8  7  1  0  0  0  0
  9  8  2  0  0  0  0
  9 10  1  0  0  0  0
 11  9  1  0  0  0  0
 12 11  2  0  0  0  0
  6 12  1  0  0  0  0
 13  5  1  0  0  0  0
 14 13  2  0  0  0  0
  2 14  1  0  0  0  0
M  END
> <ChemID>
202249

> <CAS>
92-88-6

> <Original_SMILES>
Oc1ccc(cc1)-c1ccc(O)cc1

> <preferred_name>
4,4'-Biphenyldiol

> <dsstox_substance_id>
DTXSID1029120

> <dsstox_compound_id>
DTXCID709120

> <qc_level>


> <Canonical_QSARr>
OC1C=CC(=CC=1)C1C=CC(O)=CC=1

> <InChI_Code_QSARr>
InChI=1S/C12H10O2/c13-11-5-1-9(2-6-11)10-3-7-12(14)8-4-10/h1-8,13-14H

> <InChI Key_QSARr>
VCCBEIPGXKNHFW-UHFFFAOYSA-N

> <Salt_Solvent>


> <Salt_Solvent_ID>
0

> <MPID>
101619

> <Tr_1_Tst_0>
1

> <Ready_Biodeg>
0.0

$$$$
Row1585
  Mrv171c012251911052D          

 18 19  0  0  0  0            999 V2000
    1.4001   -2.7736    0.0000 O   0  0  0  0  0  0  0  0  0  0  0  0
    1.4001   -1.9486    0.0000 C   0  0  0  0  0  0  0  0  0  0  0  0
    2.1146   -1.5361    0.0000 C   0  0  0  0  0  0  0  0  0  0  0  0
    2.1146   -0.7111    0.0000 C   0  0  0  0  0  0  0  0  0  0  0  0
    1.4001   -0.2986    0.0000 C   0  0  0  0  0  0  0  0  0  0  0  0
    1.4001    0.5264    0.0000 C   0  0  0  0  0  0  0  0  0  0  0  0
    2.1146    0.9389    0.0000 O   0  0  0  0  0  0  0  0  0  0  0  0
    0.6856    0.9389    0.0000 C   0  0  0  0  0  0  0  0  0  0  0  0
    0.6856    1.7639    0.0000 C   0  0  0  0  0  0  0  0  0  0  0  0
   -0.0288    2.1764    0.0000 C   0  0  0  0  0  0  0  0  0  0  0  0
   -0.7433    1.7639    0.0000 C   0  0  0  0  0  0  0  0  0  0  0  0
   -1.4578    2.1764    0.0000 O   0  0  0  0  0  0  0  0  0  0  0  0
   -0.7433    0.9389    0.0000 C   0  0  0  0  0  0  0  0  0  0  0  0
   -1.4578    0.5264    0.0000 O   0  0  0  0  0  0  0  0  0  0  0  0
   -0.0288    0.5264    0.0000 C   0  0  0  0  0  0  0  0  0  0  0  0
   -0.0288   -0.2986    0.0000 O   0  0  0  0  0  0  0  0  0  0  0  0
    0.6856   -0.7111    0.0000 C   0  0  0  0  0  0  0  0  0  0  0  0
    0.6856   -1.5361    0.0000 C   0  0  0  0  0  0  0  0  0  0  0  0
  1  2  1  0  0  0  0
  3  2  2  0  0  0  0
  4  3  1  0  0  0  0
  5  4  2  0  0  0  0
  5  6  1  0  0  0  0
  6  7  2  0  0  0  0
  6  8  1  0  0  0  0
  9  8  2  0  0  0  0
 10  9  1  0  0  0  0
 11 10  2  0  0  0  0
 11 12  1  0  0  0  0
 13 11  1  0  0  0  0
 13 14  1  0  0  0  0
 15 13  2  0  0  0  0
  8 15  1  0  0  0  0
 15 16  1  0  0  0  0
 17  5  1  0  0  0  0
 18 17  2  0  0  0  0
  2 18  1  0  0  0  0
M  END
> <ChemID>
202250

> <CAS>
31127-54-5

> <Original_SMILES>
Oc1ccc(cc1)C(=O)c1ccc(O)c(O)c1O

> <preferred_name>
2,3,4,4'-Tetrahydroxybenzophenone

> <dsstox_substance_id>
DTXSID5047956

> <dsstox_compound_id>
DTXCID5027932

> <qc_level>


> <Canonical_QSARr>
OC1C=CC(=CC=1)C(=O)C1=CC=C(O)C(O)=C1O

> <InChI_Code_QSARr>
InChI=1S/C13H10O5/c14-8-3-1-7(2-4-8)11(16)9-5-6-10(15)13(18)12(9)17/h1-6,14-15,17-18H

> <InChI Key_QSARr>
ZRDYULMDEGRWRC-UHFFFAOYSA-N

> <Salt_Solvent>


> <Salt_Solvent_ID>
0

> <MPID>
101620

> <Tr_1_Tst_0>
0

> <Ready_Biodeg>
0.0

$$$$
Row1586
  Mrv171c012251911052D          

 20 22  0  0  0  0            999 V2000
    0.2291   -3.0695    0.0000 O   0  0  0  0  0  0  0  0  0  0  0  0
    0.2291   -2.2445    0.0000 C   0  0  0  0  0  0  0  0  0  0  0  0
    0.9436   -1.8320    0.0000 C   0  0  0  0  0  0  0  0  0  0  0  0
    0.9436   -1.0070    0.0000 C   0  0  0  0  0  0  0  0  0  0  0  0
    0.2291   -0.5945    0.0000 C   0  0  0  0  0  0  0  0  0  0  0  0
    0.2291    0.2305    0.0000 C   0  0  0  0  0  0  0  0  0  0  0  0
    0.5113    1.0058    0.0000 C   0  0  0  0  0  0  0  0  0  0  0  0
   -0.0190    1.6378    0.0000 C   0  0  0  0  0  0  0  0  0  0  0  0
   -0.8315    1.4945    0.0000 C   0  0  0  0  0  0  0  0  0  0  0  0
   -1.1137    0.7192    0.0000 C   0  0  0  0  0  0  0  0  0  0  0  0
   -0.5834    0.0873    0.0000 C   0  0  0  0  0  0  0  0  0  0  0  0
    1.0416    0.0873    0.0000 C   0  0  0  0  0  0  0  0  0  0  0  0
    1.3237   -0.6880    0.0000 C   0  0  0  0  0  0  0  0  0  0  0  0
    2.1362   -0.8312    0.0000 C   0  0  0  0  0  0  0  0  0  0  0  0
    2.6665   -0.1993    0.0000 C   0  0  0  0  0  0  0  0  0  0  0  0
    3.4790   -0.3425    0.0000 O   0  0  0  0  0  0  0  0  0  0  0  0
    2.3843    0.5760    0.0000 C   0  0  0  0  0  0  0  0  0  0  0  0
    1.5719    0.7192    0.0000 C   0  0  0  0  0  0  0  0  0  0  0  0
   -0.4854   -1.0070    0.0000 C   0  0  0  0  0  0  0  0  0  0  0  0
   -0.4854   -1.8320    0.0000 C   0  0  0  0  0  0  0  0  0  0  0  0
  1  2  1  0  0  0  0
  3  2  2  0  0  0  0
  4  3  1  0  0  0  0
  5  4  2  0  0  0  0
  5  6  1  0  0  0  0
  7  6  1  0  0  0  0
  8  7  1  0  0  0  0
  9  8  1  0  0  0  0
 10  9  1  0  0  0  0
 11 10  1  0  0  0  0
  6 11  1  0  0  0  0
  6 12  1  0  0  0  0
 13 12  2  0  0  0  0
 14 13  1  0  0  0  0
 15 14  2  0  0  0  0
 15 16  1  0  0  0  0
 17 15  1  0  0  0  0
 18 17  2  0  0  0  0
 12 18  1  0  0  0  0
 19  5  1  0  0  0  0
 20 19  2  0  0  0  0
  2 20  1  0  0  0  0
M  END
> <ChemID>
202252

> <CAS>
843-55-0

> <Original_SMILES>
Oc1ccc(cc1)C1(CCCCC1)c1ccc(O)cc1

> <preferred_name>
Bisphenol Z

> <dsstox_substance_id>
DTXSID4047963

> <dsstox_compound_id>
DTXCID0027939

> <qc_level>


> <Canonical_QSARr>
OC1C=CC(=CC=1)C1(CCCCC1)C1C=CC(O)=CC=1

> <InChI_Code_QSARr>
InChI=1S/C18H20O2/c19-16-8-4-14(5-9-16)18(12-2-1-3-13-18)15-6-10-17(20)11-7-15/h4-11,19-20H,1-3,12-13H2

> <InChI Key_QSARr>
SDDLEVPIDBLVHC-UHFFFAOYSA-N

> <Salt_Solvent>


> <Salt_Solvent_ID>
0

> <MPID>
101621

> <Tr_1_Tst_0>
1

> <Ready_Biodeg>
0.0

$$$$
Row1587
  Mrv171c012251911052D          

 17 18  0  0  0  0            999 V2000
   -0.0000   -3.3000    0.0000 O   0  0  0  0  0  0  0  0  0  0  0  0
   -0.0000   -2.4750    0.0000 C   0  0  0  0  0  0  0  0  0  0  0  0
    0.7145   -2.0625    0.0000 C   0  0  0  0  0  0  0  0  0  0  0  0
    0.7145   -1.2375    0.0000 C   0  0  0  0  0  0  0  0  0  0  0  0
   -0.0000   -0.8250    0.0000 C   0  0  0  0  0  0  0  0  0  0  0  0
   -0.0000   -0.0000    0.0000 S   0  0  0  0  0  0  0  0  0  0  0  0
    0.8250   -0.0000    0.0000 O   0  0  0  0  0  0  0  0  0  0  0  0
   -0.8250   -0.0000    0.0000 O   0  0  0  0  0  0  0  0  0  0  0  0
   -0.0000    0.8250    0.0000 C   0  0  0  0  0  0  0  0  0  0  0  0
    0.7145    1.2375    0.0000 C   0  0  0  0  0  0  0  0  0  0  0  0
    0.7145    2.0625    0.0000 C   0  0  0  0  0  0  0  0  0  0  0  0
   -0.0000    2.4750    0.0000 C   0  0  0  0  0  0  0  0  0  0  0  0
   -0.0000    3.3000    0.0000 O   0  0  0  0  0  0  0  0  0  0  0  0
   -0.7145    2.0625    0.0000 C   0  0  0  0  0  0  0  0  0  0  0  0
   -0.7145    1.2375    0.0000 C   0  0  0  0  0  0  0  0  0  0  0  0
   -0.7145   -1.2375    0.0000 C   0  0  0  0  0  0  0  0  0  0  0  0
   -0.7145   -2.0625    0.0000 C   0  0  0  0  0  0  0  0  0  0  0  0
  1  2  1  0  0  0  0
  3  2  2  0  0  0  0
  4  3  1  0  0  0  0
  5  4  2  0  0  0  0
  5  6  1  0  0  0  0
  6  7  2  0  0  0  0
  6  8  2  0  0  0  0
  6  9  1  0  0  0  0
 10  9  2  0  0  0  0
 11 10  1  0  0  0  0
 12 11  2  0  0  0  0
 12 13  1  0  0  0  0
 14 12  1  0  0  0  0
 15 14  2  0  0  0  0
  9 15  1  0  0  0  0
 16  5  1  0  0  0  0
 17 16  2  0  0  0  0
  2 17  1  0  0  0  0
M  END
> <ChemID>
202253

> <CAS>
80-09-1

> <Original_SMILES>
Oc1ccc(cc1)S(=O)(=O)c1ccc(O)cc1

> <preferred_name>
4,4'-Sulfonyldiphenol

> <dsstox_substance_id>
DTXSID3022409

> <dsstox_compound_id>
DTXCID602409

> <qc_level>


> <Canonical_QSARr>
OC1C=CC(=CC=1)S(=O)(=O)C1C=CC(O)=CC=1

> <InChI_Code_QSARr>
InChI=1S/C12H10O4S/c13-9-1-5-11(6-2-9)17(15,16)12-7-3-10(14)4-8-12/h1-8,13-14H

> <InChI Key_QSARr>
VPWNQTHUCYMVMZ-UHFFFAOYSA-N

> <Salt_Solvent>


> <Salt_Solvent_ID>
0

> <MPID>
101622

> <Tr_1_Tst_0>
1

> <Ready_Biodeg>
0.0

$$$$
Row1588
  Mrv171c012251911052D          

 11 12  0  0  0  0            999 V2000
   -0.3120   -1.0453    0.0000 O   0  0  0  0  0  0  0  0  0  0  0  0
   -0.3120   -0.2203    0.0000 C   0  0  0  0  0  0  0  0  0  0  0  0
   -1.0265    0.1922    0.0000 C   0  0  0  0  0  0  0  0  0  0  0  0
   -1.0265    1.0172    0.0000 C   0  0  0  0  0  0  0  0  0  0  0  0
   -0.3120    1.4297    0.0000 C   0  0  0  0  0  0  0  0  0  0  0  0
    0.4025    1.0172    0.0000 C   0  0  0  0  0  0  0  0  0  0  0  0
    1.1169    1.4297    0.0000 C   0  0  0  0  0  0  0  0  0  0  0  0
    1.8314    1.0172    0.0000 C   0  0  0  0  0  0  0  0  0  0  0  0
    1.8314    0.1922    0.0000 C   0  0  0  0  0  0  0  0  0  0  0  0
    1.1169   -0.2203    0.0000 N   0  0  0  0  0  0  0  0  0  0  0  0
    0.4025    0.1922    0.0000 C   0  0  0  0  0  0  0  0  0  0  0  0
  1  2  1  0  0  0  0
  3  2  2  0  0  0  0
  4  3  1  0  0  0  0
  5  4  2  0  0  0  0
  6  5  1  0  0  0  0
  6  7  2  0  0  0  0
  7  8  1  0  0  0  0
  8  9  2  0  0  0  0
  9 10  1  0  0  0  0
 10 11  2  0  0  0  0
  2 11  1  0  0  0  0
 11  6  1  0  0  0  0
M  END
> <ChemID>
202257

> <CAS>
148-24-3

> <Original_SMILES>
Oc1cccc2ccc[n]c21

> <preferred_name>
8-Hydroxyquinoline

> <dsstox_substance_id>
DTXSID5020730

> <dsstox_compound_id>
DTXCID30730

> <qc_level>


> <Canonical_QSARr>
OC1=CC=CC2=CC=CN=C21

> <InChI_Code_QSARr>
InChI=1S/C9H7NO/c11-8-5-1-3-7-4-2-6-10-9(7)8/h1-6,11H

> <InChI Key_QSARr>
MCJGNVYPOGVAJF-UHFFFAOYSA-N

> <Salt_Solvent>


> <Salt_Solvent_ID>
0

> <MPID>
101623

> <Tr_1_Tst_0>
1

> <Ready_Biodeg>
0.0

$$$$
Row1589
  Mrv171c012251911052D          

 15 16  0  0  0  0            999 V2000
    2.0005   -0.1945    0.0000 O   0  0  0  0  0  0  0  0  0  0  0  0
    1.2861   -0.6070    0.0000 C   0  0  0  0  0  0  0  0  0  0  0  0
    1.2861   -1.4320    0.0000 C   0  0  0  0  0  0  0  0  0  0  0  0
    0.5716   -1.8445    0.0000 C   0  0  0  0  0  0  0  0  0  0  0  0
   -0.1429   -1.4320    0.0000 C   0  0  0  0  0  0  0  0  0  0  0  0
   -0.1429   -0.6070    0.0000 C   0  0  0  0  0  0  0  0  0  0  0  0
    0.5716   -0.1945    0.0000 C   0  0  0  0  0  0  0  0  0  0  0  0
    0.5716    0.6305    0.0000 C   0  0  0  0  0  0  0  0  0  0  0  0
   -0.1429    1.0430    0.0000 C   0  0  0  0  0  0  0  0  0  0  0  0
   -0.1429    1.8680    0.0000 C   0  0  0  0  0  0  0  0  0  0  0  0
   -0.8574    2.2805    0.0000 C   0  0  0  0  0  0  0  0  0  0  0  0
   -1.5718    1.8680    0.0000 C   0  0  0  0  0  0  0  0  0  0  0  0
   -1.5718    1.0430    0.0000 C   0  0  0  0  0  0  0  0  0  0  0  0
   -0.8574    0.6305    0.0000 C   0  0  0  0  0  0  0  0  0  0  0  0
   -0.8574   -0.1945    0.0000 O   0  0  0  0  0  0  0  0  0  0  0  0
  1  2  1  0  0  0  0
  3  2  2  0  0  0  0
  4  3  1  0  0  0  0
  5  4  2  0  0  0  0
  6  5  1  0  0  0  0
  7  6  2  0  0  0  0
  2  7  1  0  0  0  0
  7  8  1  0  0  0  0
  8  9  1  0  0  0  0
 10  9  2  0  0  0  0
 11 10  1  0  0  0  0
 12 11  2  0  0  0  0
 13 12  1  0  0  0  0
 14 13  2  0  0  0  0
  9 14  1  0  0  0  0
 14 15  1  0  0  0  0
M  END
> <ChemID>
202261

> <CAS>
2467-02-9

> <Original_SMILES>
Oc1ccccc1Cc1ccccc1O

> <preferred_name>


> <dsstox_substance_id>
DTXSID4022446

> <dsstox_compound_id>
DTXCID602446

> <qc_level>


> <Canonical_QSARr>
OC1=CC=CC=C1CC1=CC=CC=C1O

> <InChI_Code_QSARr>
InChI=1S/C13H12O2/c14-12-7-3-1-5-10(12)9-11-6-2-4-8-13(11)15/h1-8,14-15H,9H2

> <InChI Key_QSARr>
MQCPOLNSJCWPGT-UHFFFAOYSA-N

> <Salt_Solvent>


> <Salt_Solvent_ID>
0

> <MPID>
101624

> <Tr_1_Tst_0>
1

> <Ready_Biodeg>
0.0

$$$$
Row1590
  Mrv171c012251911052D          

 20 21  0  0  0  0            999 V2000
    2.1435    2.0625    0.0000 S   0  0  0  0  0  0  0  0  0  0  0  0
    2.1435    1.2375    0.0000 C   0  0  0  0  0  0  0  0  0  0  0  0
    2.8580    0.8250    0.0000 S   0  0  0  0  0  0  0  0  0  0  0  0
    3.5725    1.2375    0.0000 S   0  0  0  0  0  0  0  0  0  0  0  0
    4.2869    0.8250    0.0000 S   0  0  0  0  0  0  0  0  0  0  0  0
    5.0014    1.2375    0.0000 S   0  0  0  0  0  0  0  0  0  0  0  0
    5.7159    0.8250    0.0000 C   0  0  0  0  0  0  0  0  0  0  0  0
    5.7159    0.0000    0.0000 S   0  0  0  0  0  0  0  0  0  0  0  0
    6.4303    1.2375    0.0000 N   0  0  0  0  0  0  0  0  0  0  0  0
    7.1448    0.8250    0.0000 C   0  0  0  0  0  0  0  0  0  0  0  0
    7.8593    1.2375    0.0000 C   0  0  0  0  0  0  0  0  0  0  0  0
    7.8593    2.0625    0.0000 C   0  0  0  0  0  0  0  0  0  0  0  0
    7.1448    2.4750    0.0000 C   0  0  0  0  0  0  0  0  0  0  0  0
    6.4303    2.0625    0.0000 C   0  0  0  0  0  0  0  0  0  0  0  0
    1.4290    0.8250    0.0000 N   0  0  0  0  0  0  0  0  0  0  0  0
    0.7146    1.2375    0.0000 C   0  0  0  0  0  0  0  0  0  0  0  0
    0.0001    0.8250    0.0000 C   0  0  0  0  0  0  0  0  0  0  0  0
    0.0001    0.0000    0.0000 C   0  0  0  0  0  0  0  0  0  0  0  0
    0.7146   -0.4125    0.0000 C   0  0  0  0  0  0  0  0  0  0  0  0
    1.4290    0.0000    0.0000 C   0  0  0  0  0  0  0  0  0  0  0  0
  1  2  2  0  0  0  0
  2  3  1  0  0  0  0
  3  4  1  0  0  0  0
  4  5  1  0  0  0  0
  5  6  1  0  0  0  0
  6  7  1  0  0  0  0
  7  8  2  0  0  0  0
  7  9  1  0  0  0  0
 10  9  1  0  0  0  0
 11 10  1  0  0  0  0
 12 11  1  0  0  0  0
 13 12  1  0  0  0  0
 14 13  1  0  0  0  0
  9 14  1  0  0  0  0
  2 15  1  0  0  0  0
 16 15  1  0  0  0  0
 17 16  1  0  0  0  0
 18 17  1  0  0  0  0
 19 18  1  0  0  0  0
 20 19  1  0  0  0  0
 15 20  1  0  0  0  0
M  END
> <ChemID>
202265

> <CAS>
120-54-7

> <Original_SMILES>
S=C(SSSSC(=S)N1CCCCC1)N1CCCCC1

> <preferred_name>
Tetrasulfane-1,4-diylbis(piperidin-1-ylmethanethione)

> <dsstox_substance_id>
DTXSID0044789

> <dsstox_compound_id>
DTXCID8024789

> <qc_level>


> <Canonical_QSARr>
S=C(SSSSC(=S)N1CCCCC1)N1CCCCC1

> <InChI_Code_QSARr>
InChI=1S/C12H20N2S6/c15-11(13-7-3-1-4-8-13)17-19-20-18-12(16)14-9-5-2-6-10-14/h1-10H2

> <InChI Key_QSARr>
VNDRMZTXEFFQDR-UHFFFAOYSA-N

> <Salt_Solvent>


> <Salt_Solvent_ID>
0

> <MPID>
101625

> <Tr_1_Tst_0>
1

> <Ready_Biodeg>
0.0

$$$$
Row1591
  Mrv171c012251911052D          

  6  6  0  0  0  0            999 V2000
   -0.8170    1.6950    0.0000 S   0  0  0  0  0  0  0  0  0  0  0  0
   -0.8170    0.8700    0.0000 C   0  0  0  0  0  0  0  0  0  0  0  0
   -1.4844    0.3851    0.0000 N   0  0  0  0  0  0  0  0  0  0  0  0
   -1.2295   -0.3995    0.0000 C   0  0  0  0  0  0  0  0  0  0  0  0
   -0.4045   -0.3995    0.0000 C   0  0  0  0  0  0  0  0  0  0  0  0
   -0.1496    0.3851    0.0000 N   0  0  0  0  0  0  0  0  0  0  0  0
  1  2  2  0  0  0  0
  3  2  1  0  0  0  0
  4  3  1  0  0  0  0
  5  4  1  0  0  0  0
  6  5  1  0  0  0  0
  2  6  1  0  0  0  0
M  END
> <ChemID>
202266

> <CAS>
96-45-7

> <Original_SMILES>
S=C1NCCN1

> <preferred_name>
Ethylene thiourea

> <dsstox_substance_id>
DTXSID5020601

> <dsstox_compound_id>
DTXCID90601

> <qc_level>


> <Canonical_QSARr>
S=C1NCCN1

> <InChI_Code_QSARr>
InChI=1S/C3H6N2S/c6-3-4-1-2-5-3/h1-2H2,(H2,4,5,6)

> <InChI Key_QSARr>
PDQAZBWRQCGBEV-UHFFFAOYSA-N

> <Salt_Solvent>


> <Salt_Solvent_ID>
0

> <MPID>
101626

> <Tr_1_Tst_0>
0

> <Ready_Biodeg>
0.0

$$$$
Row1592
  Mrv171c012251911052D          

  9  8  0  0  0  0            999 V2000
   -0.5678   -1.2831    0.0000 O   0  0  0  0  0  0  0  0  0  0  0  0
   -0.5678   -0.4581    0.0000 C   0  0  0  0  0  0  0  0  0  0  0  0
    0.1467   -0.0456    0.0000 C   0  0  0  0  0  0  0  0  0  0  0  0
    0.5592   -0.7600    0.0000 Br  0  0  0  0  0  0  0  0  0  0  0  0
    0.8611    0.3669    0.0000 C   0  0  0  0  0  0  0  0  0  0  0  0
    0.8611    1.1919    0.0000 O   0  0  0  0  0  0  0  0  0  0  0  0
   -0.2658    0.6689    0.0000 N   0  3  0  0  0  0  0  0  0  0  0  0
    0.1467    1.3834    0.0000 O   0  5  0  0  0  0  0  0  0  0  0  0
   -1.0908    0.6689    0.0000 O   0  0  0  0  0  0  0  0  0  0  0  0
  1  2  1  0  0  0  0
  2  3  1  0  0  0  0
  3  4  1  0  0  0  0
  3  5  1  0  0  0  0
  5  6  1  0  0  0  0
  3  7  1  0  0  0  0
  7  8  1  0  0  0  0
  7  9  2  0  0  0  0
M  CHG  2   7   1   8  -1
M  END
> <ChemID>
202270

> <CAS>
52-51-7

> <Original_SMILES>
[O-][N+](=O)C(Br)(CO)CO

> <preferred_name>
Bronopol

> <dsstox_substance_id>
DTXSID8024652

> <dsstox_compound_id>
DTXCID904652

> <qc_level>


> <Canonical_QSARr>
[O-][N+](=O)C(Br)(CO)CO

> <InChI_Code_QSARr>
InChI=1S/C3H6BrNO4/c4-3(1-6,2-7)5(8)9/h6-7H,1-2H2

> <InChI Key_QSARr>
LVDKZNITIUWNER-UHFFFAOYSA-N

> <Salt_Solvent>


> <Salt_Solvent_ID>
0

> <MPID>
101627

> <Tr_1_Tst_0>
0

> <Ready_Biodeg>
0.0

$$$$
Row1593
  Mrv171c012251911052D          

 11 11  0  0  0  0            999 V2000
    0.6743   -1.3875    0.0000 O   0  5  0  0  0  0  0  0  0  0  0  0
    0.6743   -0.5625    0.0000 N   0  3  0  0  0  0  0  0  0  0  0  0
    1.3887   -0.1500    0.0000 O   0  0  0  0  0  0  0  0  0  0  0  0
   -0.0402   -0.1500    0.0000 C   0  0  0  0  0  0  0  0  0  0  0  0
   -0.0402    0.6750    0.0000 C   0  0  0  0  0  0  0  0  0  0  0  0
   -0.7547    1.0875    0.0000 C   0  0  0  0  0  0  0  0  0  0  0  0
   -0.7547    1.9125    0.0000 Cl  0  0  0  0  0  0  0  0  0  0  0  0
   -1.4692    0.6750    0.0000 C   0  0  0  0  0  0  0  0  0  0  0  0
   -1.4692   -0.1500    0.0000 C   0  0  0  0  0  0  0  0  0  0  0  0
   -0.7547   -0.5625    0.0000 C   0  0  0  0  0  0  0  0  0  0  0  0
   -0.7547   -1.3875    0.0000 Cl  0  0  0  0  0  0  0  0  0  0  0  0
  1  2  1  0  0  0  0
  2  3  2  0  0  0  0
  2  4  1  0  0  0  0
  5  4  2  0  0  0  0
  6  5  1  0  0  0  0
  6  7  1  0  0  0  0
  8  6  2  0  0  0  0
  9  8  1  0  0  0  0
 10  9  2  0  0  0  0
  4 10  1  0  0  0  0
 10 11  1  0  0  0  0
M  CHG  2   1  -1   2   1
M  END
> <ChemID>
202274

> <CAS>
89-61-2

> <Original_SMILES>
[O-][N+](=O)c1cc(Cl)ccc1Cl

> <preferred_name>
1,4-Dichloro-2-nitrobenzene

> <dsstox_substance_id>
DTXSID7052602

> <dsstox_compound_id>
DTXCID1031175

> <qc_level>


> <Canonical_QSARr>
[O-][N+](=O)C1=CC(Cl)=CC=C1Cl

> <InChI_Code_QSARr>
InChI=1S/C6H3Cl2NO2/c7-4-1-2-5(8)6(3-4)9(10)11/h1-3H

> <InChI Key_QSARr>
RZKKOBGFCAHLCZ-UHFFFAOYSA-N

> <Salt_Solvent>


> <Salt_Solvent_ID>
0

> <MPID>
101628

> <Tr_1_Tst_0>
0

> <Ready_Biodeg>
0.0

$$$$
Row1594
  Mrv171c012251911052D          

 11 11  0  0  0  0            999 V2000
    0.7145   -1.2375    0.0000 O   0  0  0  0  0  0  0  0  0  0  0  0
    0.7145   -0.4125    0.0000 C   0  0  0  0  0  0  0  0  0  0  0  0
    1.4289   -0.0000    0.0000 C   0  0  0  0  0  0  0  0  0  0  0  0
    1.4289    0.8250    0.0000 C   0  0  0  0  0  0  0  0  0  0  0  0
    0.7145    1.2375    0.0000 C   0  0  0  0  0  0  0  0  0  0  0  0
    0.7145    2.0625    0.0000 Cl  0  0  0  0  0  0  0  0  0  0  0  0
    0.0000    0.8250    0.0000 C   0  0  0  0  0  0  0  0  0  0  0  0
    0.0000   -0.0000    0.0000 C   0  0  0  0  0  0  0  0  0  0  0  0
   -0.7145   -0.4125    0.0000 N   0  3  0  0  0  0  0  0  0  0  0  0
   -0.7145   -1.2375    0.0000 O   0  5  0  0  0  0  0  0  0  0  0  0
   -1.4289   -0.0000    0.0000 O   0  0  0  0  0  0  0  0  0  0  0  0
  1  2  1  0  0  0  0
  3  2  2  0  0  0  0
  4  3  1  0  0  0  0
  5  4  2  0  0  0  0
  5  6  1  0  0  0  0
  7  5  1  0  0  0  0
  8  7  2  0  0  0  0
  2  8  1  0  0  0  0
  8  9  1  0  0  0  0
  9 10  1  0  0  0  0
  9 11  2  0  0  0  0
M  CHG  2   9   1  10  -1
M  END
> <ChemID>
202275

> <CAS>
89-64-5

> <Original_SMILES>
[O-][N+](=O)c1cc(Cl)ccc1O

> <preferred_name>
4-Chloro-2-nitrophenol

> <dsstox_substance_id>
DTXSID4058996

> <dsstox_compound_id>
DTXCID2048664

> <qc_level>


> <Canonical_QSARr>
[O-][N+](=O)C1=CC(Cl)=CC=C1O

> <InChI_Code_QSARr>
InChI=1S/C6H4ClNO3/c7-4-1-2-6(9)5(3-4)8(10)11/h1-3,9H

> <InChI Key_QSARr>
NWSIFTLPLKCTSX-UHFFFAOYSA-N

> <Salt_Solvent>


> <Salt_Solvent_ID>
0

> <MPID>
101629

> <Tr_1_Tst_0>
1

> <Ready_Biodeg>
0.0

$$$$
Row1595
  Mrv171c012251911052D          

 16 16  0  0  0  0            999 V2000
    0.7145    1.2375    0.0000 O   0  0  0  0  0  0  0  0  0  0  0  0
   -0.0000    0.8250    0.0000 C   0  0  0  0  0  0  0  0  0  0  0  0
   -0.7145    1.2375    0.0000 C   0  0  0  0  0  0  0  0  0  0  0  0
   -0.7145    2.0625    0.0000 N   0  3  0  0  0  0  0  0  0  0  0  0
   -1.4289    2.4750    0.0000 O   0  5  0  0  0  0  0  0  0  0  0  0
   -0.0000    2.4750    0.0000 O   0  0  0  0  0  0  0  0  0  0  0  0
   -1.4289    0.8250    0.0000 C   0  0  0  0  0  0  0  0  0  0  0  0
   -1.4289    0.0000    0.0000 C   0  0  0  0  0  0  0  0  0  0  0  0
   -2.1434   -0.4125    0.0000 N   0  3  0  0  0  0  0  0  0  0  0  0
   -2.1434   -1.2375    0.0000 O   0  5  0  0  0  0  0  0  0  0  0  0
   -2.8579    0.0000    0.0000 O   0  0  0  0  0  0  0  0  0  0  0  0
   -0.7145   -0.4125    0.0000 C   0  0  0  0  0  0  0  0  0  0  0  0
   -0.0000   -0.0000    0.0000 C   0  0  0  0  0  0  0  0  0  0  0  0
    0.7145   -0.4125    0.0000 N   0  3  0  0  0  0  0  0  0  0  0  0
    1.4289   -0.0000    0.0000 O   0  5  0  0  0  0  0  0  0  0  0  0
    0.7145   -1.2375    0.0000 O   0  0  0  0  0  0  0  0  0  0  0  0
  1  2  1  0  0  0  0
  3  2  2  0  0  0  0
  3  4  1  0  0  0  0
  4  5  1  0  0  0  0
  4  6  2  0  0  0  0
  7  3  1  0  0  0  0
  8  7  2  0  0  0  0
  8  9  1  0  0  0  0
  9 10  1  0  0  0  0
  9 11  2  0  0  0  0
 12  8  1  0  0  0  0
 13 12  2  0  0  0  0
  2 13  1  0  0  0  0
 13 14  1  0  0  0  0
 14 15  1  0  0  0  0
 14 16  2  0  0  0  0
M  CHG  6   4   1   5  -1   9   1  10  -1  14   1  15  -1
M  END
> <ChemID>
202276

> <CAS>
88-89-1

> <Original_SMILES>
[O-][N+](=O)c1cc(c(O)c(c1)[N+]([O-])=O)[N+]([O-])=O

> <preferred_name>
Picric acid

> <dsstox_substance_id>
DTXSID4025909

> <dsstox_compound_id>
DTXCID905909

> <qc_level>


> <Canonical_QSARr>
[O-][N+](=O)C1=CC(=C(O)C(=C1)[N+]([O-])=O)[N+]([O-])=O

> <InChI_Code_QSARr>
InChI=1S/C6H3N3O7/c10-6-4(8(13)14)1-3(7(11)12)2-5(6)9(15)16/h1-2,10H

> <InChI Key_QSARr>
OXNIZHLAWKMVMX-UHFFFAOYSA-N

> <Salt_Solvent>


> <Salt_Solvent_ID>
0

> <MPID>
101630

> <Tr_1_Tst_0>
1

> <Ready_Biodeg>
0.0

$$$$
Row1596
  Mrv171c012251911052D          

 11 11  0  0  0  0            999 V2000
    0.3255   -1.8750    0.0000 O   0  5  0  0  0  0  0  0  0  0  0  0
    1.0400   -1.4625    0.0000 N   0  3  0  0  0  0  0  0  0  0  0  0
    1.7544   -1.8750    0.0000 O   0  0  0  0  0  0  0  0  0  0  0  0
    1.0400   -0.6375    0.0000 C   0  0  0  0  0  0  0  0  0  0  0  0
    1.7544   -0.2250    0.0000 C   0  0  0  0  0  0  0  0  0  0  0  0
    1.7544    0.6000    0.0000 C   0  0  0  0  0  0  0  0  0  0  0  0
    1.0400    1.0125    0.0000 C   0  0  0  0  0  0  0  0  0  0  0  0
    1.0400    1.8375    0.0000 C   0  0  0  0  0  0  0  0  0  0  0  0
    0.3255    2.2500    0.0000 Cl  0  0  0  0  0  0  0  0  0  0  0  0
    0.3255    0.6000    0.0000 C   0  0  0  0  0  0  0  0  0  0  0  0
    0.3255   -0.2250    0.0000 C   0  0  0  0  0  0  0  0  0  0  0  0
  1  2  1  0  0  0  0
  2  3  2  0  0  0  0
  2  4  1  0  0  0  0
  5  4  2  0  0  0  0
  6  5  1  0  0  0  0
  7  6  2  0  0  0  0
  7  8  1  0  0  0  0
  8  9  1  0  0  0  0
 10  7  1  0  0  0  0
 11 10  2  0  0  0  0
  4 11  1  0  0  0  0
M  CHG  2   1  -1   2   1
M  END
> <ChemID>
202282

> <CAS>
100-14-1

> <Original_SMILES>
[O-][N+](=O)c1ccc(CCl)cc1

> <preferred_name>
4-Nitrobenzyl chloride

> <dsstox_substance_id>
DTXSID4025745

> <dsstox_compound_id>
DTXCID105745

> <qc_level>


> <Canonical_QSARr>
[O-][N+](=O)C1C=CC(CCl)=CC=1

> <InChI_Code_QSARr>
InChI=1S/C7H6ClNO2/c8-5-6-1-3-7(4-2-6)9(10)11/h1-4H,5H2

> <InChI Key_QSARr>
KGCNHWXDPDPSBV-UHFFFAOYSA-N

> <Salt_Solvent>


> <Salt_Solvent_ID>
0

> <MPID>
101631

> <Tr_1_Tst_0>
0

> <Ready_Biodeg>
0.0

$$$$
Row1597
  Mrv171c012251911052D          

 11 11  0  0  0  0            999 V2000
   -0.9596   -1.4826    0.0000 O   0  5  0  0  0  0  0  0  0  0  0  0
   -0.2451   -1.0701    0.0000 N   0  3  0  0  0  0  0  0  0  0  0  0
    0.4694   -1.4826    0.0000 O   0  0  0  0  0  0  0  0  0  0  0  0
   -0.2451   -0.2451    0.0000 C   0  0  0  0  0  0  0  0  0  0  0  0
    0.4694    0.1674    0.0000 C   0  0  0  0  0  0  0  0  0  0  0  0
    0.4694    0.9924    0.0000 C   0  0  0  0  0  0  0  0  0  0  0  0
   -0.2451    1.4049    0.0000 C   0  0  0  0  0  0  0  0  0  0  0  0
   -0.2451    2.2299    0.0000 Cl  0  0  0  0  0  0  0  0  0  0  0  0
   -0.9596    0.9924    0.0000 C   0  0  0  0  0  0  0  0  0  0  0  0
   -0.9596    0.1674    0.0000 C   0  0  0  0  0  0  0  0  0  0  0  0
   -1.6740   -0.2451    0.0000 Cl  0  0  0  0  0  0  0  0  0  0  0  0
  1  2  1  0  0  0  0
  2  3  2  0  0  0  0
  2  4  1  0  0  0  0
  5  4  2  0  0  0  0
  6  5  1  0  0  0  0
  7  6  2  0  0  0  0
  7  8  1  0  0  0  0
  9  7  1  0  0  0  0
 10  9  2  0  0  0  0
  4 10  1  0  0  0  0
 10 11  1  0  0  0  0
M  CHG  2   1  -1   2   1
M  END
> <ChemID>
202284

> <CAS>
611-06-3

> <Original_SMILES>
[O-][N+](=O)c1ccc(Cl)cc1Cl

> <preferred_name>
2,4-Dichloronitrobenzene

> <dsstox_substance_id>
DTXSID3024998

> <dsstox_compound_id>
DTXCID104998

> <qc_level>


> <Canonical_QSARr>
[O-][N+](=O)C1=CC=C(Cl)C=C1Cl

> <InChI_Code_QSARr>
InChI=1S/C6H3Cl2NO2/c7-4-1-2-6(9(10)11)5(8)3-4/h1-3H

> <InChI Key_QSARr>
QUIMTLZDMCNYGY-UHFFFAOYSA-N

> <Salt_Solvent>


> <Salt_Solvent_ID>
0

> <MPID>
101632

> <Tr_1_Tst_0>
1

> <Ready_Biodeg>
0.0

$$$$
Row1598
  Mrv171c012251911052D          

 11 11  0  0  0  0            999 V2000
   -1.8589   -0.1152    0.0000 O   0  5  0  0  0  0  0  0  0  0  0  0
   -1.1444   -0.5277    0.0000 N   0  3  0  0  0  0  0  0  0  0  0  0
   -1.1444   -1.3527    0.0000 O   0  0  0  0  0  0  0  0  0  0  0  0
   -0.4299   -0.1152    0.0000 C   0  0  0  0  0  0  0  0  0  0  0  0
    0.2846   -0.5277    0.0000 C   0  0  0  0  0  0  0  0  0  0  0  0
    0.9990   -0.1152    0.0000 C   0  0  0  0  0  0  0  0  0  0  0  0
    0.9990    0.7098    0.0000 C   0  0  0  0  0  0  0  0  0  0  0  0
    0.2846    1.1223    0.0000 C   0  0  0  0  0  0  0  0  0  0  0  0
    0.2846    1.9473    0.0000 Cl  0  0  0  0  0  0  0  0  0  0  0  0
   -0.4299    0.7098    0.0000 C   0  0  0  0  0  0  0  0  0  0  0  0
   -1.1444    1.1223    0.0000 Cl  0  0  0  0  0  0  0  0  0  0  0  0
  1  2  1  0  0  0  0
  2  3  2  0  0  0  0
  2  4  1  0  0  0  0
  5  4  2  0  0  0  0
  6  5  1  0  0  0  0
  7  6  2  0  0  0  0
  8  7  1  0  0  0  0
  8  9  1  0  0  0  0
 10  8  2  0  0  0  0
  4 10  1  0  0  0  0
 10 11  1  0  0  0  0
M  CHG  2   1  -1   2   1
M  END
> <ChemID>
202290

> <CAS>
3209-22-1

> <Original_SMILES>
[O-][N+](=O)c1cccc(Cl)c1Cl

> <preferred_name>
2,3-Dichloronitrobenzene

> <dsstox_substance_id>
DTXSID8024997

> <dsstox_compound_id>
DTXCID704997

> <qc_level>


> <Canonical_QSARr>
[O-][N+](=O)C1=CC=CC(Cl)=C1Cl

> <InChI_Code_QSARr>
InChI=1S/C6H3Cl2NO2/c7-4-2-1-3-5(6(4)8)9(10)11/h1-3H

> <InChI Key_QSARr>
CMVQZRLQEOAYSW-UHFFFAOYSA-N

> <Salt_Solvent>


> <Salt_Solvent_ID>
0

> <MPID>
101633

> <Tr_1_Tst_0>
0

> <Ready_Biodeg>
0.0

$$$$
Row1599
  Mrv171c012251911052D          

 16 17  0  0  0  0            999 V2000
   -1.2227    2.4197    0.0000 O   0  5  0  0  0  0  0  0  0  0  0  0
   -0.5082    2.0072    0.0000 N   0  3  0  0  0  0  0  0  0  0  0  0
    0.2063    2.4197    0.0000 O   0  0  0  0  0  0  0  0  0  0  0  0
   -0.5082    1.1822    0.0000 C   0  0  0  0  0  0  0  0  0  0  0  0
   -1.2227    0.7697    0.0000 C   0  0  0  0  0  0  0  0  0  0  0  0
   -1.2227   -0.0553    0.0000 C   0  0  0  0  0  0  0  0  0  0  0  0
   -0.5082   -0.4678    0.0000 C   0  0  0  0  0  0  0  0  0  0  0  0
    0.2062   -0.0553    0.0000 C   0  0  0  0  0  0  0  0  0  0  0  0
    0.2063    0.7697    0.0000 C   0  0  0  0  0  0  0  0  0  0  0  0
    0.9207    1.1822    0.0000 C   0  0  0  0  0  0  0  0  0  0  0  0
    1.6352    0.7697    0.0000 C   0  0  0  0  0  0  0  0  0  0  0  0
    1.6352   -0.0553    0.0000 C   0  0  0  0  0  0  0  0  0  0  0  0
    0.9207   -0.4678    0.0000 C   0  0  0  0  0  0  0  0  0  0  0  0
    0.9207   -1.2928    0.0000 N   0  3  0  0  0  0  0  0  0  0  0  0
    1.6352   -1.7053    0.0000 O   0  5  0  0  0  0  0  0  0  0  0  0
    0.2062   -1.7053    0.0000 O   0  0  0  0  0  0  0  0  0  0  0  0
  1  2  1  0  0  0  0
  2  3  2  0  0  0  0
  2  4  1  0  0  0  0
  5  4  2  0  0  0  0
  6  5  1  0  0  0  0
  7  6  2  0  0  0  0
  8  7  1  0  0  0  0
  8  9  2  0  0  0  0
  4  9  1  0  0  0  0
  9 10  1  0  0  0  0
 10 11  2  0  0  0  0
 11 12  1  0  0  0  0
 12 13  2  0  0  0  0
 13  8  1  0  0  0  0
 13 14  1  0  0  0  0
 14 15  1  0  0  0  0
 14 16  2  0  0  0  0
M  CHG  4   1  -1   2   1  14   1  15  -1
M  END
> <ChemID>
202292

> <CAS>
605-71-0

> <Original_SMILES>
[O-][N+](=O)c1cccc2c(cccc21)[N+]([O-])=O

> <preferred_name>
1,5-Dinitronaphthalene

> <dsstox_substance_id>
DTXSID4025165

> <dsstox_compound_id>
DTXCID505165

> <qc_level>


> <Canonical_QSARr>
[O-][N+](=O)C1=CC=CC2C(=CC=CC=21)[N+]([O-])=O

> <InChI_Code_QSARr>
InChI=1S/C10H6N2O4/c13-11(14)9-5-1-3-7-8(9)4-2-6-10(7)12(15)16/h1-6H

> <InChI Key_QSARr>
ZUTCJXFCHHDFJS-UHFFFAOYSA-N

> <Salt_Solvent>


> <Salt_Solvent_ID>
0

> <MPID>
101634

> <Tr_1_Tst_0>
1

> <Ready_Biodeg>
0.0

$$$$
Row1600
  Mrv171c012251911052D          

  5  5  0  0  0  0            999 V2000
    1.0799   -0.3509    0.0000 N   0  0  0  0  0  0  0  0  0  0  0  0
    0.4125    0.1340    0.0000 C   0  0  0  0  0  0  0  0  0  0  0  0
   -0.2549   -0.3509    0.0000 C   0  0  0  0  0  0  0  0  0  0  0  0
   -0.0000   -1.1355    0.0000 N   0  0  0  0  0  0  0  0  0  0  0  0
    0.8250   -1.1355    0.0000 C   0  0  0  0  0  0  0  0  0  0  0  0
  2  1  1  0  0  0  0
  3  2  2  0  0  0  0
  4  3  1  0  0  0  0
  5  4  2  0  0  0  0
  1  5  1  0  0  0  0
M  END
> <ChemID>
202298

> <CAS>
288-32-4

> <Original_SMILES>
c1[nH]cc[n]1

> <preferred_name>
Imidazole

> <dsstox_substance_id>
DTXSID2029616

> <dsstox_compound_id>
DTXCID809616

> <qc_level>


> <Canonical_QSARr>
C1NC=CN=1

> <InChI_Code_QSARr>
InChI=1S/C3H4N2/c1-2-5-3-4-1/h1-3H,(H,4,5)

> <InChI Key_QSARr>
RAXXELZNTBOGNW-UHFFFAOYSA-N

> <Salt_Solvent>


> <Salt_Solvent_ID>
0

> <MPID>
101635

> <Tr_1_Tst_0>
0

> <Ready_Biodeg>
1.0

$$$$
Row1601
  Mrv171c012251911052D          

 15 17  0  0  0  0            999 V2000
    0.4849    0.6674    0.0000 N   0  0  0  0  0  0  0  0  0  0  0  0
    1.2695    0.4125    0.0000 C   0  0  0  0  0  0  0  0  0  0  0  0
    1.9840    0.8250    0.0000 C   0  0  0  0  0  0  0  0  0  0  0  0
    2.6985    0.4125    0.0000 C   0  0  0  0  0  0  0  0  0  0  0  0
    2.6985   -0.4125    0.0000 C   0  0  0  0  0  0  0  0  0  0  0  0
    1.9840   -0.8250    0.0000 C   0  0  0  0  0  0  0  0  0  0  0  0
    1.2695   -0.4125    0.0000 C   0  0  0  0  0  0  0  0  0  0  0  0
    0.4849   -0.6674    0.0000 C   0  0  0  0  0  0  0  0  0  0  0  0
   -0.0000    0.0000    0.0000 C   0  0  0  0  0  0  0  0  0  0  0  0
   -0.8250    0.0000    0.0000 C   0  0  0  0  0  0  0  0  0  0  0  0
   -1.2375    0.7145    0.0000 C   0  0  0  0  0  0  0  0  0  0  0  0
   -2.0625    0.7145    0.0000 C   0  0  0  0  0  0  0  0  0  0  0  0
   -2.4750    0.0000    0.0000 C   0  0  0  0  0  0  0  0  0  0  0  0
   -2.0625   -0.7145    0.0000 C   0  0  0  0  0  0  0  0  0  0  0  0
   -1.2375   -0.7145    0.0000 C   0  0  0  0  0  0  0  0  0  0  0  0
  2  1  1  0  0  0  0
  2  3  2  0  0  0  0
  3  4  1  0  0  0  0
  4  5  2  0  0  0  0
  5  6  1  0  0  0  0
  6  7  2  0  0  0  0
  7  2  1  0  0  0  0
  8  7  1  0  0  0  0
  9  8  2  0  0  0  0
  1  9  1  0  0  0  0
  9 10  1  0  0  0  0
 11 10  2  0  0  0  0
 12 11  1  0  0  0  0
 13 12  2  0  0  0  0
 14 13  1  0  0  0  0
 15 14  2  0  0  0  0
 10 15  1  0  0  0  0
M  END
> <ChemID>
202300

> <CAS>
948-65-2

> <Original_SMILES>
c1c([nH]c2ccccc21)-c1ccccc1

> <preferred_name>
1H-Indole, 2-phenyl-

> <dsstox_substance_id>
DTXSID8061343

> <dsstox_compound_id>
DTXCID3048940

> <qc_level>


> <Canonical_QSARr>
C1=C(NC2=CC=CC=C21)C1C=CC=CC=1

> <InChI_Code_QSARr>
InChI=1S/C14H11N/c1-2-6-11(7-3-1)14-10-12-8-4-5-9-13(12)15-14/h1-10,15H

> <InChI Key_QSARr>
KLLLJCACIRKBDT-UHFFFAOYSA-N

> <Salt_Solvent>


> <Salt_Solvent_ID>
0

> <MPID>
101636

> <Tr_1_Tst_0>
1

> <Ready_Biodeg>
0.0

$$$$
Row1602
  Mrv171c012251911052D          

  9 10  0  0  0  0            999 V2000
   -1.4973   -0.4377    0.0000 N   0  0  0  0  0  0  0  0  0  0  0  0
   -1.0124    0.2298    0.0000 N   0  0  0  0  0  0  0  0  0  0  0  0
   -0.2278   -0.0252    0.0000 C   0  0  0  0  0  0  0  0  0  0  0  0
    0.4867    0.3873    0.0000 C   0  0  0  0  0  0  0  0  0  0  0  0
    1.2011   -0.0252    0.0000 C   0  0  0  0  0  0  0  0  0  0  0  0
    1.2011   -0.8502    0.0000 C   0  0  0  0  0  0  0  0  0  0  0  0
    0.4867   -1.2627    0.0000 C   0  0  0  0  0  0  0  0  0  0  0  0
   -0.2278   -0.8502    0.0000 C   0  0  0  0  0  0  0  0  0  0  0  0
   -1.0124   -1.1051    0.0000 N   0  0  0  0  0  0  0  0  0  0  0  0
  2  1  1  0  0  0  0
  3  2  2  0  0  0  0
  3  4  1  0  0  0  0
  4  5  2  0  0  0  0
  5  6  1  0  0  0  0
  6  7  2  0  0  0  0
  7  8  1  0  0  0  0
  8  3  1  0  0  0  0
  9  8  2  0  0  0  0
  1  9  1  0  0  0  0
M  END
> <ChemID>
202310

> <CAS>
95-14-7

> <Original_SMILES>
c1cccc2[n][nH][n]c21

> <preferred_name>
1,2,3-Benzotriazole

> <dsstox_substance_id>
DTXSID6020147

> <dsstox_compound_id>
DTXCID00147

> <qc_level>


> <Canonical_QSARr>
C1=CC=CC2=NNN=C21

> <InChI_Code_QSARr>
InChI=1S/C6H5N3/c1-2-4-6-5(3-1)7-9-8-6/h1-4H,(H,7,8,9)

> <InChI Key_QSARr>
QRUDEWIWKLJBPS-UHFFFAOYSA-N

> <Salt_Solvent>


> <Salt_Solvent_ID>
0

> <MPID>
101637

> <Tr_1_Tst_0>
0

> <Ready_Biodeg>
0.0

$$$$
