Row0
  Mrv171c012261910382D          

 14 14  0  0  0  0            999 V2000
    4.2587   -3.0942    0.0000 Cl  0  0  0  0  0  0  0  0  0  0  0  0
    3.5442   -2.6817    0.0000 C   0  0  0  0  0  0  0  0  0  0  0  0
    3.5442   -1.8567    0.0000 N   0  0  0  0  0  0  0  0  0  0  0  0
    2.8297   -1.4442    0.0000 C   0  0  0  0  0  0  0  0  0  0  0  0
    2.8297   -0.6192    0.0000 N   0  0  0  0  0  0  0  0  0  0  0  0
    3.5442   -0.2067    0.0000 C   0  0  0  0  0  0  0  0  0  0  0  0
    3.5442    0.6183    0.0000 C   0  0  0  0  0  0  0  0  0  0  0  0
    4.2587   -0.6192    0.0000 C   0  0  0  0  0  0  0  0  0  0  0  0
    2.1153   -1.8567    0.0000 N   0  0  0  0  0  0  0  0  0  0  0  0
    2.1153   -2.6817    0.0000 C   0  0  0  0  0  0  0  0  0  0  0  0
    1.4008   -3.0942    0.0000 N   0  0  0  0  0  0  0  0  0  0  0  0
    0.6863   -2.6817    0.0000 C   0  0  0  0  0  0  0  0  0  0  0  0
   -0.0282   -3.0942    0.0000 C   0  0  0  0  0  0  0  0  0  0  0  0
    2.8297   -3.0942    0.0000 N   0  0  0  0  0  0  0  0  0  0  0  0
  1  2  1  0  0  0  0
  3  2  1  0  0  0  0
  4  3  2  0  0  0  0
  4  5  1  0  0  0  0
  5  6  1  0  0  0  0
  6  7  1  0  0  0  0
  6  8  1  0  0  0  0
  9  4  1  0  0  0  0
 10  9  2  0  0  0  0
 10 11  1  0  0  0  0
 11 12  1  0  0  0  0
 12 13  1  0  0  0  0
 14 10  1  0  0  0  0
  2 14  2  0  0  0  0
M  END
> <ChemID>
100001

> <CAS>
1912-24-9

> <Original_SMILES>
CCNc1[n]c(Cl)[n]c(NC(C)C)[n]1

> <preferred_name>
Atrazine

> <dsstox_substance_id>
DTXSID9020112

> <dsstox_compound_id>
DTXCID90112

> <Canonical_QSARr>
CCNC1N=C(Cl)N=C(NC(C)C)N=1

> <InChI_Code_QSARr>
InChI=1S/C8H14ClN5/c1-4-10-7-12-6(9)13-8(14-7)11-5(2)3/h5H,4H2,1-3H3,(H2,10,11,12,13,14)

> <InChI Key_QSARr>
MXWJVTOOROXGIU-UHFFFAOYSA-N

> <Salt_Solvent>


> <Salt_Solvent_ID>
0

> <RT>
12.627

$$$$
Row1
  Mrv171c012261910382D          

 15 16  0  0  0  0            999 V2000
    2.6675   -2.8051    0.0000 O   0  0  0  0  0  0  0  0  0  0  0  0
    2.6675   -1.9801    0.0000 C   0  0  0  0  0  0  0  0  0  0  0  0
    3.3820   -1.5676    0.0000 C   0  0  0  0  0  0  0  0  0  0  0  0
    3.3820   -0.7426    0.0000 C   0  0  0  0  0  0  0  0  0  0  0  0
    2.6675   -0.3301    0.0000 C   0  0  0  0  0  0  0  0  0  0  0  0
    2.6675    0.4949    0.0000 Cl  0  0  0  0  0  0  0  0  0  0  0  0
    1.9530   -0.7426    0.0000 C   0  0  0  0  0  0  0  0  0  0  0  0
    1.9530   -1.5676    0.0000 C   0  0  0  0  0  0  0  0  0  0  0  0
    1.2386   -1.9801    0.0000 C   0  0  0  0  0  0  0  0  0  0  0  0
    1.2386   -2.8051    0.0000 C   0  0  0  0  0  0  0  0  0  0  0  0
    0.5241   -3.2176    0.0000 C   0  0  0  0  0  0  0  0  0  0  0  0
    0.5241   -4.0426    0.0000 C   0  0  0  0  0  0  0  0  0  0  0  0
    1.2386   -4.4551    0.0000 C   0  0  0  0  0  0  0  0  0  0  0  0
    1.9530   -4.0426    0.0000 C   0  0  0  0  0  0  0  0  0  0  0  0
    1.9530   -3.2176    0.0000 C   0  0  0  0  0  0  0  0  0  0  0  0
  1  2  1  0  0  0  0
  3  2  1  0  0  0  0
  4  3  2  0  0  0  0
  5  4  1  0  0  0  0
  5  6  1  0  0  0  0
  7  5  2  0  0  0  0
  8  7  1  0  0  0  0
  2  8  2  0  0  0  0
  8  9  1  0  0  0  0
  9 10  1  0  0  0  0
 11 10  1  0  0  0  0
 12 11  2  0  0  0  0
 13 12  1  0  0  0  0
 14 13  2  0  0  0  0
 15 14  1  0  0  0  0
 10 15  2  0  0  0  0
M  END
> <ChemID>
100002

> <CAS>
120-32-1

> <Original_SMILES>
Oc1ccc(Cl)cc1Cc1ccccc1

> <preferred_name>
Clorophene

> <dsstox_substance_id>
DTXSID5020154

> <dsstox_compound_id>
DTXCID30154

> <Canonical_QSARr>
OC1C=CC(Cl)=CC=1CC1C=CC=CC=1

> <InChI_Code_QSARr>
InChI=1S/C13H11ClO/c14-12-6-7-13(15)11(9-12)8-10-4-2-1-3-5-10/h1-7,9,15H,8H2

> <InChI Key_QSARr>
NCKMMSIFQUPKCK-UHFFFAOYSA-N

> <Salt_Solvent>


> <Salt_Solvent_ID>
0

> <RT>
22.262

$$$$
Row2
  Mrv171c012261910382D          

 17 18  0  0  0  0            999 V2000
    1.5011   -1.6268    0.0000 C   0  0  0  0  0  0  0  0  0  0  0  0
    2.3261   -1.6268    0.0000 C   0  0  0  0  0  0  0  0  0  0  0  0
    3.1511   -1.6268    0.0000 C   0  0  0  0  0  0  0  0  0  0  0  0
    2.3261   -0.8018    0.0000 C   0  0  0  0  0  0  0  0  0  0  0  0
    3.0405   -0.3893    0.0000 C   0  0  0  0  0  0  0  0  0  0  0  0
    3.0405    0.4357    0.0000 C   0  0  0  0  0  0  0  0  0  0  0  0
    2.3261    0.8482    0.0000 C   0  0  0  0  0  0  0  0  0  0  0  0
    2.3261    1.6732    0.0000 O   0  0  0  0  0  0  0  0  0  0  0  0
    1.6116    0.4357    0.0000 C   0  0  0  0  0  0  0  0  0  0  0  0
    1.6116   -0.3893    0.0000 C   0  0  0  0  0  0  0  0  0  0  0  0
    2.3261   -2.4518    0.0000 C   0  0  0  0  0  0  0  0  0  0  0  0
    1.6116   -2.8643    0.0000 C   0  0  0  0  0  0  0  0  0  0  0  0
    1.6116   -3.6893    0.0000 C   0  0  0  0  0  0  0  0  0  0  0  0
    2.3261   -4.1018    0.0000 C   0  0  0  0  0  0  0  0  0  0  0  0
    2.3261   -4.9268    0.0000 O   0  0  0  0  0  0  0  0  0  0  0  0
    3.0405   -3.6893    0.0000 C   0  0  0  0  0  0  0  0  0  0  0  0
    3.0405   -2.8643    0.0000 C   0  0  0  0  0  0  0  0  0  0  0  0
  1  2  1  0  0  0  0
  2  3  1  0  0  0  0
  2  4  1  0  0  0  0
  5  4  1  0  0  0  0
  6  5  2  0  0  0  0
  7  6  1  0  0  0  0
  7  8  1  0  0  0  0
  9  7  2  0  0  0  0
 10  9  1  0  0  0  0
  4 10  2  0  0  0  0
  2 11  1  0  0  0  0
 12 11  1  0  0  0  0
 13 12  2  0  0  0  0
 14 13  1  0  0  0  0
 14 15  1  0  0  0  0
 16 14  2  0  0  0  0
 17 16  1  0  0  0  0
 11 17  2  0  0  0  0
M  END
> <ChemID>
100003

> <CAS>
80-05-7

> <Original_SMILES>
CC(C)(c1ccc(O)cc1)c1ccc(O)cc1

> <preferred_name>
Bisphenol A

> <dsstox_substance_id>
DTXSID7020182

> <dsstox_compound_id>
DTXCID30182

> <Canonical_QSARr>
CC(C)(C1C=CC(O)=CC=1)C1C=CC(O)=CC=1

> <InChI_Code_QSARr>
InChI=1S/C15H16O2/c1-15(2,11-3-7-13(16)8-4-11)12-5-9-14(17)10-6-12/h3-10,16-17H,1-2H3

> <InChI Key_QSARr>
IISBACLAFKSPIT-UHFFFAOYSA-N

> <Salt_Solvent>


> <Salt_Solvent_ID>
0

> <RT>
15.52

$$$$
Row3
  Mrv171c012261910382D          

 15 16  0  0  0  0            999 V2000
    0.7124   -2.3379    0.0000 O   0  0  0  0  0  0  0  0  0  0  0  0
    1.4268   -2.7504    0.0000 C   0  0  0  0  0  0  0  0  0  0  0  0
    1.4268   -3.5754    0.0000 N   0  0  0  0  0  0  0  0  0  0  0  0
    0.7124   -3.9879    0.0000 C   0  0  0  0  0  0  0  0  0  0  0  0
    2.1413   -2.3379    0.0000 O   0  0  0  0  0  0  0  0  0  0  0  0
    2.1413   -1.5129    0.0000 C   0  0  0  0  0  0  0  0  0  0  0  0
    1.4268   -1.1004    0.0000 C   0  0  0  0  0  0  0  0  0  0  0  0
    1.4268   -0.2754    0.0000 C   0  0  0  0  0  0  0  0  0  0  0  0
    2.1413    0.1371    0.0000 C   0  0  0  0  0  0  0  0  0  0  0  0
    2.8558   -0.2754    0.0000 C   0  0  0  0  0  0  0  0  0  0  0  0
    3.5703    0.1371    0.0000 C   0  0  0  0  0  0  0  0  0  0  0  0
    4.2847   -0.2754    0.0000 C   0  0  0  0  0  0  0  0  0  0  0  0
    4.2847   -1.1004    0.0000 C   0  0  0  0  0  0  0  0  0  0  0  0
    3.5703   -1.5129    0.0000 C   0  0  0  0  0  0  0  0  0  0  0  0
    2.8558   -1.1004    0.0000 C   0  0  0  0  0  0  0  0  0  0  0  0
  1  2  2  0  0  0  0
  2  3  1  0  0  0  0
  3  4  1  0  0  0  0
  2  5  1  0  0  0  0
  5  6  1  0  0  0  0
  7  6  1  0  0  0  0
  8  7  2  0  0  0  0
  9  8  1  0  0  0  0
 10  9  2  0  0  0  0
 10 11  1  0  0  0  0
 11 12  2  0  0  0  0
 12 13  1  0  0  0  0
 13 14  2  0  0  0  0
 14 15  1  0  0  0  0
  6 15  2  0  0  0  0
 15 10  1  0  0  0  0
M  END
> <ChemID>
100004

> <CAS>
63-25-2

> <Original_SMILES>
CNC(=O)Oc1cccc2ccccc21

> <preferred_name>
Carbaryl

> <dsstox_substance_id>
DTXSID9020247

> <dsstox_compound_id>
DTXCID10247

> <Canonical_QSARr>
CNC(=O)OC1C=CC=C2C=CC=CC2=1

> <InChI_Code_QSARr>
InChI=1S/C12H11NO2/c1-13-12(14)15-11-8-4-6-9-5-2-3-7-10(9)11/h2-8H,1H3,(H,13,14)

> <InChI Key_QSARr>
CVXBEEMKQHEXEN-UHFFFAOYSA-N

> <Salt_Solvent>


> <Salt_Solvent_ID>
0

> <RT>
11.085

$$$$
Row4
  Mrv171c012261910382D          

 22 24  0  0  0  0            999 V2000
    2.5031   -4.8484    0.0000 N   0  0  0  0  0  0  0  0  0  0  0  0
    2.7580   -4.0637    0.0000 C   0  0  0  0  0  0  0  0  0  0  0  0
    2.0906   -3.5788    0.0000 N   0  0  0  0  0  0  0  0  0  0  0  0
    2.0906   -2.7538    0.0000 C   0  0  0  0  0  0  0  0  0  0  0  0
    2.8051   -2.3413    0.0000 C   0  0  0  0  0  0  0  0  0  0  0  0
    3.2176   -3.0558    0.0000 O   0  0  0  0  0  0  0  0  0  0  0  0
    3.5195   -1.9288    0.0000 C   0  0  0  0  0  0  0  0  0  0  0  0
    4.2340   -2.3413    0.0000 C   0  0  0  0  0  0  0  0  0  0  0  0
    4.9485   -1.9288    0.0000 C   0  0  0  0  0  0  0  0  0  0  0  0
    4.9485   -1.1038    0.0000 C   0  0  0  0  0  0  0  0  0  0  0  0
    5.6630   -0.6913    0.0000 F   0  0  0  0  0  0  0  0  0  0  0  0
    4.2340   -0.6913    0.0000 C   0  0  0  0  0  0  0  0  0  0  0  0
    3.5195   -1.1038    0.0000 C   0  0  0  0  0  0  0  0  0  0  0  0
    2.8051   -0.6913    0.0000 F   0  0  0  0  0  0  0  0  0  0  0  0
    2.3926   -1.6268    0.0000 C   0  0  0  0  0  0  0  0  0  0  0  0
    1.5676   -1.6268    0.0000 N   0  0  0  0  0  0  0  0  0  0  0  0
    1.0826   -0.9594    0.0000 C   0  0  0  0  0  0  0  0  0  0  0  0
    0.2980   -1.2143    0.0000 N   0  0  0  0  0  0  0  0  0  0  0  0
    0.2980   -2.0393    0.0000 C   0  0  0  0  0  0  0  0  0  0  0  0
    1.0826   -2.2943    0.0000 N   0  0  0  0  0  0  0  0  0  0  0  0
    1.4232   -4.0637    0.0000 N   0  0  0  0  0  0  0  0  0  0  0  0
    1.6781   -4.8484    0.0000 C   0  0  0  0  0  0  0  0  0  0  0  0
  2  1  2  0  0  0  0
  3  2  1  0  0  0  0
  3  4  1  0  0  0  0
  4  5  1  0  0  0  0
  5  6  1  0  0  0  0
  5  7  1  0  0  0  0
  8  7  1  0  0  0  0
  9  8  2  0  0  0  0
 10  9  1  0  0  0  0
 10 11  1  0  0  0  0
 12 10  2  0  0  0  0
 13 12  1  0  0  0  0
  7 13  2  0  0  0  0
 13 14  1  0  0  0  0
  5 15  1  0  0  0  0
 15 16  1  0  0  0  0
 17 16  1  0  0  0  0
 18 17  2  0  0  0  0
 19 18  1  0  0  0  0
 20 19  2  0  0  0  0
 16 20  1  0  0  0  0
 21  3  1  0  0  0  0
 22 21  2  0  0  0  0
  1 22  1  0  0  0  0
M  END
> <ChemID>
100005

> <CAS>
86386-73-4

> <Original_SMILES>
OC(C[n]1c[n]c[n]1)(C[n]1c[n]c[n]1)c1ccc(F)cc1F

> <preferred_name>
Fluconazole

> <dsstox_substance_id>
DTXSID3020627

> <dsstox_compound_id>
DTXCID10627

> <Canonical_QSARr>
OC(CN1C=NC=N1)(CN1C=NC=N1)C1C=CC(F)=CC=1F

> <InChI_Code_QSARr>
InChI=1S/C13H12F2N6O/c14-10-1-2-11(12(15)3-10)13(22,4-20-8-16-6-18-20)5-21-9-17-7-19-21/h1-3,6-9,22H,4-5H2

> <InChI Key_QSARr>
RFHAOTPXVQNOHP-UHFFFAOYSA-N

> <Salt_Solvent>


> <Salt_Solvent_ID>
0

> <RT>
3.802

$$$$
Row5
  Mrv171c012261910382D          

 23 25  0  0  0  0            999 V2000
    2.3321   -0.3300    0.0000 O   0  0  0  0  0  0  0  0  0  0  0  0
    2.3321    0.4950    0.0000 C   0  0  0  0  0  0  0  0  0  0  0  0
    1.6176    0.9075    0.0000 C   0  0  0  0  0  0  0  0  0  0  0  0
    0.9031    0.4950    0.0000 C   0  0  0  0  0  0  0  0  0  0  0  0
    0.9031   -0.3300    0.0000 O   0  0  0  0  0  0  0  0  0  0  0  0
    0.1886    0.9075    0.0000 N   0  0  0  0  0  0  0  0  0  0  0  0
   -0.5258    0.4950    0.0000 C   0  0  0  0  0  0  0  0  0  0  0  0
   -1.2795    0.8306    0.0000 S   0  0  0  0  0  0  0  0  0  0  0  0
   -1.8315    0.2175    0.0000 C   0  0  0  0  0  0  0  0  0  0  0  0
   -2.6520    0.3037    0.0000 C   0  0  0  0  0  0  0  0  0  0  0  0
   -1.4190   -0.4970    0.0000 C   0  0  0  0  0  0  0  0  0  0  0  0
   -0.6121   -0.3255    0.0000 N   0  0  0  0  0  0  0  0  0  0  0  0
    1.6176    1.7325    0.0000 N   0  0  0  0  0  0  0  0  0  0  0  0
    0.9031    2.1450    0.0000 C   0  0  0  0  0  0  0  0  0  0  0  0
    2.3321    2.1450    0.0000 S   0  0  0  0  0  0  0  0  0  0  0  0
    1.8018    2.7770    0.0000 O   0  0  0  0  0  0  0  0  0  0  0  0
    2.8624    2.7770    0.0000 O   0  0  0  0  0  0  0  0  0  0  0  0
    3.0465    1.7325    0.0000 C   0  0  0  0  0  0  0  0  0  0  0  0
    3.7610    2.1450    0.0000 C   0  0  0  0  0  0  0  0  0  0  0  0
    4.4755    1.7325    0.0000 C   0  0  0  0  0  0  0  0  0  0  0  0
    4.4755    0.9075    0.0000 C   0  0  0  0  0  0  0  0  0  0  0  0
    3.7610    0.4950    0.0000 C   0  0  0  0  0  0  0  0  0  0  0  0
    3.0465    0.9075    0.0000 C   0  0  0  0  0  0  0  0  0  0  0  0
  1  2  2  0  0  0  0
  3  2  1  0  0  0  0
  3  4  1  0  0  0  0
  4  5  2  0  0  0  0
  4  6  1  0  0  0  0
  6  7  1  0  0  0  0
  8  7  1  0  0  0  0
  9  8  1  0  0  0  0
  9 10  1  0  0  0  0
 11  9  2  0  0  0  0
 12 11  1  0  0  0  0
  7 12  2  0  0  0  0
 13  3  1  0  0  0  0
 13 14  1  0  0  0  0
 15 13  1  0  0  0  0
 15 16  2  0  0  0  0
 15 17  2  0  0  0  0
 18 15  1  0  0  0  0
 18 19  2  0  0  0  0
 19 20  1  0  0  0  0
 20 21  2  0  0  0  0
 21 22  1  0  0  0  0
 22 23  2  0  0  0  0
  2 23  1  0  0  0  0
 23 18  1  0  0  0  0
M  END
> <ChemID>
100006

> <CAS>
71125-38-7

> <Original_SMILES>
Cc1c[n]c(NC(=O)C2=C(O)c3ccccc3S(=O)(=O)N2C)[s]1

> <preferred_name>
Meloxicam

> <dsstox_substance_id>
DTXSID1020803

> <dsstox_compound_id>
DTXCID70803

> <Canonical_QSARr>
CC1=CN=C(NC(=O)C2C(=O)C3=CC=CC=C3S(=O)(=O)N2C)S1

> <InChI_Code_QSARr>
InChI=1S/C14H13N3O4S2/c1-8-7-15-14(22-8)16-13(19)11-12(18)9-5-3-4-6-10(9)23(20,21)17(11)2/h3-7,11H,1-2H3,(H,15,16,19)

> <InChI Key_QSARr>
ZAHQBPYQBHTECE-UHFFFAOYSA-N

> <Salt_Solvent>


> <Salt_Solvent_ID>
0

> <RT>
7.525

$$$$
Row6
  Mrv171c012261910382D          

 12 13  0  0  0  0            999 V2000
    1.2348   -2.1775    0.0000 N   0  0  0  0  0  0  0  0  0  0  0  0
    0.4502   -1.9226    0.0000 C   0  0  0  0  0  0  0  0  0  0  0  0
    1.4897   -2.9622    0.0000 C   0  0  0  0  0  0  0  0  0  0  0  0
    2.3147   -2.9622    0.0000 C   0  0  0  0  0  0  0  0  0  0  0  0
    2.5697   -2.1775    0.0000 C   0  0  0  0  0  0  0  0  0  0  0  0
    1.9022   -1.6926    0.0000 C   0  0  0  0  0  0  0  0  0  0  0  0
    1.9022   -0.8676    0.0000 C   0  0  0  0  0  0  0  0  0  0  0  0
    2.6167   -0.4551    0.0000 C   0  0  0  0  0  0  0  0  0  0  0  0
    2.6167    0.3699    0.0000 C   0  0  0  0  0  0  0  0  0  0  0  0
    1.9022    0.7824    0.0000 C   0  0  0  0  0  0  0  0  0  0  0  0
    1.1877    0.3699    0.0000 N   0  0  0  0  0  0  0  0  0  0  0  0
    1.1877   -0.4551    0.0000 C   0  0  0  0  0  0  0  0  0  0  0  0
  1  2  1  0  0  0  0
  3  1  1  0  0  0  0
  4  3  1  0  0  0  0
  5  4  1  0  0  0  0
  6  5  1  0  0  0  0
  1  6  1  0  0  0  0
  6  7  1  0  0  0  0
  8  7  1  0  0  0  0
  9  8  2  0  0  0  0
 10  9  1  0  0  0  0
 11 10  2  0  0  0  0
 12 11  1  0  0  0  0
  7 12  2  0  0  0  0
M  END
> <ChemID>
100007

> <CAS>
54-11-5

> <Original_SMILES>
CN1CCC[C@H]1c1c[n]ccc1

> <preferred_name>
Nicotine

> <dsstox_substance_id>
DTXSID1020930

> <dsstox_compound_id>
DTXCID50930

> <Canonical_QSARr>
CN1CCCC1C1=CN=CC=C1

> <InChI_Code_QSARr>
InChI=1S/C10H14N2/c1-12-7-3-5-10(12)9-4-2-6-11-8-9/h2,4,6,8,10H,3,5,7H2,1H3

> <InChI Key_QSARr>
SNICXCGAKADSCV-UHFFFAOYSA-N

> <Salt_Solvent>


> <Salt_Solvent_ID>
0

> <RT>
1.63

$$$$
Row7
  Mrv171c012261910382D          

 13 14  0  0  0  0            999 V2000
    1.7669   -2.4826    0.0000 N   0  0  0  0  0  0  0  0  0  0  0  0
    1.7669   -3.3076    0.0000 C   0  0  0  0  0  0  0  0  0  0  0  0
    2.4814   -2.0701    0.0000 C   0  0  0  0  0  0  0  0  0  0  0  0
    3.1959   -2.4826    0.0000 O   0  0  0  0  0  0  0  0  0  0  0  0
    2.4814   -1.2451    0.0000 N   0  0  0  0  0  0  0  0  0  0  0  0
    3.1959   -0.8326    0.0000 C   0  0  0  0  0  0  0  0  0  0  0  0
    1.7669   -0.8326    0.0000 C   0  0  0  0  0  0  0  0  0  0  0  0
    1.7669   -0.0076    0.0000 O   0  0  0  0  0  0  0  0  0  0  0  0
    1.0525   -1.2451    0.0000 C   0  0  0  0  0  0  0  0  0  0  0  0
    0.2678   -0.9902    0.0000 N   0  0  0  0  0  0  0  0  0  0  0  0
   -0.2171   -1.6576    0.0000 C   0  0  0  0  0  0  0  0  0  0  0  0
    0.2678   -2.3251    0.0000 N   0  0  0  0  0  0  0  0  0  0  0  0
    1.0525   -2.0701    0.0000 C   0  0  0  0  0  0  0  0  0  0  0  0
  1  2  1  0  0  0  0
  3  1  1  0  0  0  0
  3  4  2  0  0  0  0
  5  3  1  0  0  0  0
  5  6  1  0  0  0  0
  7  5  1  0  0  0  0
  7  8  2  0  0  0  0
  9  7  1  0  0  0  0
  9 10  1  0  0  0  0
 10 11  1  0  0  0  0
 11 12  2  0  0  0  0
 12 13  1  0  0  0  0
  1 13  1  0  0  0  0
 13  9  2  0  0  0  0
M  END
> <ChemID>
100008

> <CAS>
58-55-9

> <Original_SMILES>
CN1C(=O)c2[nH]c[n]c2N(C)C1=O

> <preferred_name>
Theophylline

> <dsstox_substance_id>
DTXSID5021336

> <dsstox_compound_id>
DTXCID001336

> <Canonical_QSARr>
CN1C(=O)C2NC=NC=2N(C)C1=O

> <InChI_Code_QSARr>
InChI=1S/C7H8N4O2/c1-10-5-4(8-3-9-5)6(12)11(2)7(10)13/h3H,1-2H3,(H,8,9)

> <InChI Key_QSARr>
ZFXYFBGIUFBOJW-UHFFFAOYSA-N

> <Salt_Solvent>


> <Salt_Solvent_ID>
0

> <RT>
1.268

$$$$
Row8
  Mrv171c012261910382D          

 29 28  0  0  0  0            999 V2000
    4.1550   -6.2363    0.0000 O   0  0  0  0  0  0  0  0  0  0  0  0
    4.1550   -5.4113    0.0000 P   0  0  0  0  0  0  0  0  0  0  0  0
    4.9800   -5.4113    0.0000 O   0  0  0  0  0  0  0  0  0  0  0  0
    5.3925   -6.1258    0.0000 C   0  0  0  0  0  0  0  0  0  0  0  0
    6.2175   -6.1258    0.0000 C   0  0  0  0  0  0  0  0  0  0  0  0
    6.6300   -5.4113    0.0000 C   0  0  0  0  0  0  0  0  0  0  0  0
    7.4550   -5.4113    0.0000 C   0  0  0  0  0  0  0  0  0  0  0  0
    6.6300   -6.8402    0.0000 C   0  0  0  0  0  0  0  0  0  0  0  0
    7.4550   -6.8402    0.0000 C   0  0  0  0  0  0  0  0  0  0  0  0
    7.8675   -7.5547    0.0000 C   0  0  0  0  0  0  0  0  0  0  0  0
    8.6925   -7.5547    0.0000 C   0  0  0  0  0  0  0  0  0  0  0  0
    3.3300   -5.4113    0.0000 O   0  0  0  0  0  0  0  0  0  0  0  0
    2.9175   -4.6968    0.0000 C   0  0  0  0  0  0  0  0  0  0  0  0
    2.0925   -4.6968    0.0000 C   0  0  0  0  0  0  0  0  0  0  0  0
    1.6800   -5.4113    0.0000 C   0  0  0  0  0  0  0  0  0  0  0  0
    0.8550   -5.4113    0.0000 C   0  0  0  0  0  0  0  0  0  0  0  0
    1.6800   -3.9824    0.0000 C   0  0  0  0  0  0  0  0  0  0  0  0
    0.8550   -3.9824    0.0000 C   0  0  0  0  0  0  0  0  0  0  0  0
    0.4425   -3.2679    0.0000 C   0  0  0  0  0  0  0  0  0  0  0  0
   -0.3825   -3.2679    0.0000 C   0  0  0  0  0  0  0  0  0  0  0  0
    4.1550   -4.5863    0.0000 O   0  0  0  0  0  0  0  0  0  0  0  0
    3.4405   -4.1738    0.0000 C   0  0  0  0  0  0  0  0  0  0  0  0
    3.4405   -3.3488    0.0000 C   0  0  0  0  0  0  0  0  0  0  0  0
    2.7260   -2.9363    0.0000 C   0  0  0  0  0  0  0  0  0  0  0  0
    2.0115   -3.3488    0.0000 C   0  0  0  0  0  0  0  0  0  0  0  0
    4.1550   -2.9363    0.0000 C   0  0  0  0  0  0  0  0  0  0  0  0
    4.8694   -3.3488    0.0000 C   0  0  0  0  0  0  0  0  0  0  0  0
    5.5839   -2.9363    0.0000 C   0  0  0  0  0  0  0  0  0  0  0  0
    6.2984   -3.3488    0.0000 C   0  0  0  0  0  0  0  0  0  0  0  0
  1  2  2  0  0  0  0
  2  3  1  0  0  0  0
  3  4  1  0  0  0  0
  4  5  1  0  0  0  0
  5  6  1  0  0  0  0
  6  7  1  0  0  0  0
  5  8  1  0  0  0  0
  8  9  1  0  0  0  0
  9 10  1  0  0  0  0
 10 11  1  0  0  0  0
  2 12  1  0  0  0  0
 12 13  1  0  0  0  0
 13 14  1  0  0  0  0
 14 15  1  0  0  0  0
 15 16  1  0  0  0  0
 14 17  1  0  0  0  0
 17 18  1  0  0  0  0
 18 19  1  0  0  0  0
 19 20  1  0  0  0  0
  2 21  1  0  0  0  0
 21 22  1  0  0  0  0
 22 23  1  0  0  0  0
 23 24  1  0  0  0  0
 24 25  1  0  0  0  0
 23 26  1  0  0  0  0
 26 27  1  0  0  0  0
 27 28  1  0  0  0  0
 28 29  1  0  0  0  0
M  END
> <ChemID>
100009

> <CAS>
78-42-2

> <Original_SMILES>
CCCCC(COP(=O)(OCC(CCCC)CC)OCC(CCCC)CC)CC

> <preferred_name>
Tris(2-ethylhexyl) phosphate

> <dsstox_substance_id>
DTXSID0021414

> <dsstox_compound_id>
DTXCID801414

> <Canonical_QSARr>
CCCCC(COP(=O)(OCC(CCCC)CC)OCC(CCCC)CC)CC

> <InChI_Code_QSARr>
InChI=1S/C24H51O4P/c1-7-13-16-22(10-4)19-26-29(25,27-20-23(11-5)17-14-8-2)28-21-24(12-6)18-15-9-3/h22-24H,7-21H2,1-6H3

> <InChI Key_QSARr>
GTVWRXDRKAHEAD-UHFFFAOYSA-N

> <Salt_Solvent>


> <Salt_Solvent_ID>
0

> <RT>
40.785

$$$$
Row9
  Mrv171c012261910382D          

 20 21  0  0  0  0            999 V2000
    1.4289   -1.6500    0.0000 C   0  0  0  0  0  0  0  0  0  0  0  0
    1.4289   -2.4750    0.0000 C   0  0  0  0  0  0  0  0  0  0  0  0
    2.1434   -2.8875    0.0000 C   0  0  0  0  0  0  0  0  0  0  0  0
    2.1434   -3.7125    0.0000 C   0  0  0  0  0  0  0  0  0  0  0  0
    1.4289   -4.1250    0.0000 C   0  0  0  0  0  0  0  0  0  0  0  0
    1.4289   -4.9500    0.0000 O   0  0  0  0  0  0  0  0  0  0  0  0
    0.7145   -3.7125    0.0000 C   0  0  0  0  0  0  0  0  0  0  0  0
    0.7145   -2.8875    0.0000 C   0  0  0  0  0  0  0  0  0  0  0  0
    0.0000   -4.1250    0.0000 N   0  0  0  0  0  0  0  0  0  0  0  0
    0.0000   -4.9500    0.0000 N   0  0  0  0  0  0  0  0  0  0  0  0
   -0.7145   -5.3625    0.0000 C   0  0  0  0  0  0  0  0  0  0  0  0
   -0.7145   -6.1875    0.0000 C   0  0  0  0  0  0  0  0  0  0  0  0
   -1.4289   -6.6000    0.0000 C   0  0  0  0  0  0  0  0  0  0  0  0
   -2.1434   -6.1875    0.0000 C   0  0  0  0  0  0  0  0  0  0  0  0
   -2.1434   -5.3625    0.0000 C   0  0  0  0  0  0  0  0  0  0  0  0
   -1.4289   -4.9500    0.0000 C   0  0  0  0  0  0  0  0  0  0  0  0
   -2.8579   -6.6000    0.0000 N   0  0  0  0  0  0  0  0  0  0  0  0
   -3.5724   -6.1875    0.0000 C   0  0  0  0  0  0  0  0  0  0  0  0
   -4.2868   -6.6000    0.0000 C   0  0  0  0  0  0  0  0  0  0  0  0
   -3.5724   -5.3625    0.0000 O   0  0  0  0  0  0  0  0  0  0  0  0
  1  2  1  0  0  0  0
  2  3  1  0  0  0  0
  3  4  2  0  0  0  0
  4  5  1  0  0  0  0
  5  6  1  0  0  0  0
  5  7  2  0  0  0  0
  7  8  1  0  0  0  0
  2  8  2  0  0  0  0
  9  7  1  4  0  0  0
  9 10  2  0  0  0  0
 10 11  1  0  0  0  0
 11 12  1  0  0  0  0
 12 13  2  0  0  0  0
 13 14  1  0  0  0  0
 14 15  2  0  0  0  0
 15 16  1  0  0  0  0
 11 16  2  0  0  0  0
 14 17  1  0  0  0  0
 17 18  1  0  0  0  0
 18 19  1  0  0  0  0
 18 20  2  0  0  0  0
M  END
> <ChemID>
100010

> <CAS>
2832-40-8

> <Original_SMILES>
Cc1cc(/N=N/c2ccc(cc2)NC(C)=O)c(O)cc1

> <preferred_name>
C.I. Disperse Yellow 3

> <dsstox_substance_id>
DTXSID6021450

> <dsstox_compound_id>
DTXCID401450

> <Canonical_QSARr>
CC1C=CC(O)=C(C=1)N=NC1C=CC(=CC=1)NC(C)=O

> <InChI_Code_QSARr>
InChI=1S/C15H15N3O2/c1-10-3-8-15(20)14(9-10)18-17-13-6-4-12(5-7-13)16-11(2)19/h3-9,20H,1-2H3,(H,16,19)

> <InChI Key_QSARr>
PXOZAFXVEWKXED-UHFFFAOYSA-N

> <Salt_Solvent>


> <Salt_Solvent_ID>
0

> <RT>
20.463

$$$$
Row10
  Mrv171c012261910382D          

 14 13  0  0  0  0            999 V2000
    0.0072   -0.4109    0.0000 O   0  0  0  0  0  0  0  0  0  0  0  0
    0.7216    0.0016    0.0000 C   0  0  0  0  0  0  0  0  0  0  0  0
    1.4361   -0.4109    0.0000 C   0  0  0  0  0  0  0  0  0  0  0  0
    2.1506    0.0016    0.0000 O   0  0  0  0  0  0  0  0  0  0  0  0
    2.8650   -0.4109    0.0000 C   0  0  0  0  0  0  0  0  0  0  0  0
    3.5795    0.0016    0.0000 C   0  0  0  0  0  0  0  0  0  0  0  0
    4.2940   -0.4109    0.0000 O   0  0  0  0  0  0  0  0  0  0  0  0
    5.0085    0.0016    0.0000 C   0  0  0  0  0  0  0  0  0  0  0  0
    5.7229   -0.4109    0.0000 C   0  0  0  0  0  0  0  0  0  0  0  0
    6.4374    0.0016    0.0000 O   0  0  0  0  0  0  0  0  0  0  0  0
    7.1519   -0.4109    0.0000 C   0  0  0  0  0  0  0  0  0  0  0  0
    7.8663    0.0016    0.0000 C   0  0  0  0  0  0  0  0  0  0  0  0
    8.5808   -0.4109    0.0000 C   0  0  0  0  0  0  0  0  0  0  0  0
    9.2953    0.0016    0.0000 C   0  0  0  0  0  0  0  0  0  0  0  0
  1  2  1  0  0  0  0
  2  3  1  0  0  0  0
  3  4  1  0  0  0  0
  4  5  1  0  0  0  0
  5  6  1  0  0  0  0
  6  7  1  0  0  0  0
  7  8  1  0  0  0  0
  8  9  1  0  0  0  0
  9 10  1  0  0  0  0
 10 11  1  0  0  0  0
 11 12  1  0  0  0  0
 12 13  1  0  0  0  0
 13 14  1  0  0  0  0
M  END
> <ChemID>
100011

> <CAS>
143-22-6

> <Original_SMILES>
CCCCOCCOCCOCCO

> <preferred_name>
2-[2-(2-Butoxyethoxy)ethoxy]ethanol

> <dsstox_substance_id>
DTXSID7021520

> <dsstox_compound_id>
DTXCID701520

> <Canonical_QSARr>
CCCCOCCOCCOCCO

> <InChI_Code_QSARr>
InChI=1S/C10H22O4/c1-2-3-5-12-7-9-14-10-8-13-6-4-11/h11H,2-10H2,1H3

> <InChI Key_QSARr>
COBPKKZHLDDMTB-UHFFFAOYSA-N

> <Salt_Solvent>


> <Salt_Solvent_ID>
0

> <RT>
7.845

$$$$
Row11
  Mrv171c012261910382D          

 16 16  0  0  0  0            999 V2000
    4.8210   -3.4038    0.0000 C   0  0  0  0  0  0  0  0  0  0  0  0
    4.1066   -2.9913    0.0000 C   0  0  0  0  0  0  0  0  0  0  0  0
    3.3921   -3.4038    0.0000 O   0  0  0  0  0  0  0  0  0  0  0  0
    2.6776   -2.9913    0.0000 C   0  0  0  0  0  0  0  0  0  0  0  0
    1.9631   -3.4038    0.0000 C   0  0  0  0  0  0  0  0  0  0  0  0
    1.2487   -2.9913    0.0000 C   0  0  0  0  0  0  0  0  0  0  0  0
    1.2487   -2.1663    0.0000 C   0  0  0  0  0  0  0  0  0  0  0  0
    0.5342   -1.7538    0.0000 O   0  0  0  0  0  0  0  0  0  0  0  0
    0.5342   -0.9288    0.0000 C   0  0  0  0  0  0  0  0  0  0  0  0
   -0.1803   -0.5163    0.0000 C   0  0  0  0  0  0  0  0  0  0  0  0
    1.9631   -1.7538    0.0000 O   0  0  0  0  0  0  0  0  0  0  0  0
    0.5342   -3.4038    0.0000 C   0  0  0  0  0  0  0  0  0  0  0  0
    0.5342   -4.2288    0.0000 C   0  0  0  0  0  0  0  0  0  0  0  0
    1.2487   -4.6413    0.0000 C   0  0  0  0  0  0  0  0  0  0  0  0
    1.9631   -4.2288    0.0000 C   0  0  0  0  0  0  0  0  0  0  0  0
    2.6776   -2.1663    0.0000 O   0  0  0  0  0  0  0  0  0  0  0  0
  1  2  1  0  0  0  0
  2  3  1  0  0  0  0
  3  4  1  0  0  0  0
  4  5  1  0  0  0  0
  6  5  1  0  0  0  0
  6  7  1  0  0  0  0
  7  8  1  0  0  0  0
  8  9  1  0  0  0  0
  9 10  1  0  0  0  0
  7 11  2  0  0  0  0
 12  6  2  0  0  0  0
 13 12  1  0  0  0  0
 14 13  2  0  0  0  0
 15 14  1  0  0  0  0
  5 15  2  0  0  0  0
  4 16  2  0  0  0  0
M  END
> <ChemID>
100012

> <CAS>
84-66-2

> <Original_SMILES>
CCOC(=O)c1ccccc1C(=O)OCC

> <preferred_name>
Diethyl phthalate

> <dsstox_substance_id>
DTXSID7021780

> <dsstox_compound_id>
DTXCID901780

> <Canonical_QSARr>
CCOC(=O)C1=CC=CC=C1C(=O)OCC

> <InChI_Code_QSARr>
InChI=1S/C12H14O4/c1-3-15-11(13)9-7-5-6-8-10(9)12(14)16-4-2/h5-8H,3-4H2,1-2H3

> <InChI Key_QSARr>
FLKPEMZONWLCSK-UHFFFAOYSA-N

> <Salt_Solvent>


> <Salt_Solvent_ID>
0

> <RT>
14.995

$$$$
Row12
  Mrv171c012261910382D          

 18 17  0  0  0  0            999 V2000
   -0.0033   -1.2345    0.0000 C   0  0  0  0  0  0  0  0  0  0  0  0
    0.7111   -0.8220    0.0000 C   0  0  0  0  0  0  0  0  0  0  0  0
    1.4256   -1.2345    0.0000 C   0  0  0  0  0  0  0  0  0  0  0  0
    2.1401   -0.8220    0.0000 C   0  0  0  0  0  0  0  0  0  0  0  0
    2.8546   -1.2345    0.0000 O   0  0  0  0  0  0  0  0  0  0  0  0
    3.5690   -0.8220    0.0000 C   0  0  0  0  0  0  0  0  0  0  0  0
    4.2835   -1.2345    0.0000 C   0  0  0  0  0  0  0  0  0  0  0  0
    4.9980   -0.8220    0.0000 C   0  0  0  0  0  0  0  0  0  0  0  0
    5.7124   -1.2345    0.0000 C   0  0  0  0  0  0  0  0  0  0  0  0
    6.4269   -0.8220    0.0000 C   0  0  0  0  0  0  0  0  0  0  0  0
    7.1414   -1.2345    0.0000 C   0  0  0  0  0  0  0  0  0  0  0  0
    7.8559   -0.8220    0.0000 O   0  0  0  0  0  0  0  0  0  0  0  0
    8.5703   -1.2345    0.0000 C   0  0  0  0  0  0  0  0  0  0  0  0
    9.2848   -0.8220    0.0000 C   0  0  0  0  0  0  0  0  0  0  0  0
    9.9993   -1.2345    0.0000 C   0  0  0  0  0  0  0  0  0  0  0  0
   10.7137   -0.8220    0.0000 C   0  0  0  0  0  0  0  0  0  0  0  0
    7.1414   -2.0595    0.0000 O   0  0  0  0  0  0  0  0  0  0  0  0
    3.5690    0.0030    0.0000 O   0  0  0  0  0  0  0  0  0  0  0  0
  1  2  1  0  0  0  0
  2  3  1  0  0  0  0
  3  4  1  0  0  0  0
  4  5  1  0  0  0  0
  5  6  1  0  0  0  0
  6  7  1  0  0  0  0
  7  8  1  0  0  0  0
  8  9  1  0  0  0  0
  9 10  1  0  0  0  0
 10 11  1  0  0  0  0
 11 12  1  0  0  0  0
 12 13  1  0  0  0  0
 13 14  1  0  0  0  0
 14 15  1  0  0  0  0
 15 16  1  0  0  0  0
 11 17  2  0  0  0  0
  6 18  2  0  0  0  0
M  END
> <ChemID>
100013

> <CAS>
105-99-7

> <Original_SMILES>
CCCCOC(=O)CCCCC(=O)OCCCC

> <preferred_name>
Dibutyl adipate

> <dsstox_substance_id>
DTXSID2021866

> <dsstox_compound_id>
DTXCID901866

> <Canonical_QSARr>
CCCCOC(=O)CCCCC(=O)OCCCC

> <InChI_Code_QSARr>
InChI=1S/C14H26O4/c1-3-5-11-17-13(15)9-7-8-10-14(16)18-12-6-4-2/h3-12H2,1-2H3

> <InChI Key_QSARr>
XTJFFFGAUHQWII-UHFFFAOYSA-N

> <Salt_Solvent>


> <Salt_Solvent_ID>
0

> <RT>
25.725

$$$$
Row13
  Mrv171c012261910382D          

 13 12  0  0  0  0            999 V2000
    0.0151   -0.0320    0.0000 C   0  0  0  0  0  0  0  0  0  0  0  0
    0.7295   -0.4445    0.0000 C   0  0  0  0  0  0  0  0  0  0  0  0
    1.4440   -0.0320    0.0000 C   0  0  0  0  0  0  0  0  0  0  0  0
    2.1585   -0.4445    0.0000 C   0  0  0  0  0  0  0  0  0  0  0  0
    2.8729   -0.0320    0.0000 C   0  0  0  0  0  0  0  0  0  0  0  0
    3.5874   -0.4445    0.0000 C   0  0  0  0  0  0  0  0  0  0  0  0
    4.3019   -0.0320    0.0000 C   0  0  0  0  0  0  0  0  0  0  0  0
    5.0164   -0.4445    0.0000 C   0  0  0  0  0  0  0  0  0  0  0  0
    5.7308   -0.0320    0.0000 C   0  0  0  0  0  0  0  0  0  0  0  0
    6.4453   -0.4445    0.0000 C   0  0  0  0  0  0  0  0  0  0  0  0
    7.1598   -0.0320    0.0000 C   0  0  0  0  0  0  0  0  0  0  0  0
    7.8742   -0.4445    0.0000 C   0  0  0  0  0  0  0  0  0  0  0  0
    8.5887   -0.0320    0.0000 N   0  0  0  0  0  0  0  0  0  0  0  0
  1  2  1  0  0  0  0
  2  3  1  0  0  0  0
  3  4  1  0  0  0  0
  4  5  1  0  0  0  0
  5  6  1  0  0  0  0
  6  7  1  0  0  0  0
  7  8  1  0  0  0  0
  8  9  1  0  0  0  0
  9 10  1  0  0  0  0
 10 11  1  0  0  0  0
 11 12  1  0  0  0  0
 12 13  1  0  0  0  0
M  END
> <ChemID>
100014

> <CAS>
124-22-1

> <Original_SMILES>
CCCCCCCCCCCCN

> <preferred_name>
1-Dodecanamine

> <dsstox_substance_id>
DTXSID3021984

> <dsstox_compound_id>
DTXCID901984

> <Canonical_QSARr>
CCCCCCCCCCCCN

> <InChI_Code_QSARr>
InChI=1S/C12H27N/c1-2-3-4-5-6-7-8-9-10-11-12-13/h2-13H2,1H3

> <InChI Key_QSARr>
JRBPAEWTRLWTQC-UHFFFAOYSA-N

> <Salt_Solvent>


> <Salt_Solvent_ID>
0

> <RT>
23.985

$$$$
Row14
  Mrv171c012261910382D          

 19 21  0  0  0  0            999 V2000
    3.1785   -0.9972    0.0000 C   0  0  0  0  0  0  0  0  0  0  0  0
    2.4641   -1.4097    0.0000 C   0  0  0  0  0  0  0  0  0  0  0  0
    1.7496   -0.9972    0.0000 C   0  0  0  0  0  0  0  0  0  0  0  0
    1.0351   -1.4097    0.0000 C   0  0  0  0  0  0  0  0  0  0  0  0
    1.0351   -2.2347    0.0000 C   0  0  0  0  0  0  0  0  0  0  0  0
    0.3206   -2.6472    0.0000 O   0  0  0  0  0  0  0  0  0  0  0  0
    1.7496   -2.6472    0.0000 C   0  0  0  0  0  0  0  0  0  0  0  0
    2.4641   -2.2347    0.0000 C   0  0  0  0  0  0  0  0  0  0  0  0
    3.1785   -0.1722    0.0000 C   0  0  0  0  0  0  0  0  0  0  0  0
    3.8930    0.2403    0.0000 O   0  0  0  0  0  0  0  0  0  0  0  0
    4.6075   -0.1722    0.0000 C   0  0  0  0  0  0  0  0  0  0  0  0
    5.3219    0.2403    0.0000 C   0  0  0  0  0  0  0  0  0  0  0  0
    6.0364   -0.1722    0.0000 C   0  0  0  0  0  0  0  0  0  0  0  0
    6.7509    0.2403    0.0000 O   0  0  0  0  0  0  0  0  0  0  0  0
    6.0364   -0.9972    0.0000 C   0  0  0  0  0  0  0  0  0  0  0  0
    5.3219   -1.4097    0.0000 C   0  0  0  0  0  0  0  0  0  0  0  0
    4.6075   -0.9972    0.0000 C   0  0  0  0  0  0  0  0  0  0  0  0
    3.8930   -1.4097    0.0000 C   0  0  0  0  0  0  0  0  0  0  0  0
    3.8930   -2.2347    0.0000 O   0  0  0  0  0  0  0  0  0  0  0  0
  1  2  1  0  0  0  0
  3  2  1  0  0  0  0
  4  3  2  0  0  0  0
  5  4  1  0  0  0  0
  5  6  1  0  0  0  0
  7  5  2  0  0  0  0
  8  7  1  0  0  0  0
  2  8  2  0  0  0  0
  9  1  2  0  0  0  0
 10  9  1  0  0  0  0
 11 10  1  0  0  0  0
 11 12  1  0  0  0  0
 12 13  2  0  0  0  0
 13 14  1  0  0  0  0
 13 15  1  0  0  0  0
 15 16  2  0  0  0  0
 16 17  1  0  0  0  0
 17 11  2  0  0  0  0
 18 17  1  0  0  0  0
  1 18  1  0  0  0  0
 18 19  2  0  0  0  0
M  END
> <ChemID>
100015

> <CAS>
486-66-8

> <Original_SMILES>
Oc1ccc(cc1)C1=COc2cc(O)ccc2C1=O

> <preferred_name>
Daidzein

> <dsstox_substance_id>
DTXSID9022310

> <dsstox_compound_id>
DTXCID102310

> <Canonical_QSARr>
OC1=CC2OC=C(C(=O)C=2C=C1)C1C=CC(O)=CC=1

> <InChI_Code_QSARr>
InChI=1S/C15H10O4/c16-10-3-1-9(2-4-10)13-8-19-14-7-11(17)5-6-12(14)15(13)18/h1-8,16-17H

> <InChI Key_QSARr>
ZQSIJRDFPHDXIC-UHFFFAOYSA-N

> <Salt_Solvent>


> <Salt_Solvent_ID>
0

> <RT>
9.012

$$$$
Row15
  Mrv171c012261910382D          

 17 18  0  0  0  0            999 V2000
    3.2993   -0.8250    0.0000 S   0  0  0  0  0  0  0  0  0  0  0  0
    2.4743   -0.8250    0.0000 O   0  0  0  0  0  0  0  0  0  0  0  0
    4.1243   -0.8250    0.0000 O   0  0  0  0  0  0  0  0  0  0  0  0
    3.2993   -0.0000    0.0000 C   0  0  0  0  0  0  0  0  0  0  0  0
    4.0138    0.4125    0.0000 C   0  0  0  0  0  0  0  0  0  0  0  0
    4.0138    1.2375    0.0000 C   0  0  0  0  0  0  0  0  0  0  0  0
    3.2993    1.6500    0.0000 C   0  0  0  0  0  0  0  0  0  0  0  0
    3.2993    2.4750    0.0000 O   0  0  0  0  0  0  0  0  0  0  0  0
    2.5848    1.2375    0.0000 C   0  0  0  0  0  0  0  0  0  0  0  0
    2.5848    0.4125    0.0000 C   0  0  0  0  0  0  0  0  0  0  0  0
    3.2993   -1.6500    0.0000 C   0  0  0  0  0  0  0  0  0  0  0  0
    2.5848   -2.0625    0.0000 C   0  0  0  0  0  0  0  0  0  0  0  0
    2.5848   -2.8875    0.0000 C   0  0  0  0  0  0  0  0  0  0  0  0
    3.2993   -3.3000    0.0000 C   0  0  0  0  0  0  0  0  0  0  0  0
    3.2993   -4.1250    0.0000 O   0  0  0  0  0  0  0  0  0  0  0  0
    4.0138   -2.8875    0.0000 C   0  0  0  0  0  0  0  0  0  0  0  0
    4.0138   -2.0625    0.0000 C   0  0  0  0  0  0  0  0  0  0  0  0
  1  2  2  0  0  0  0
  1  3  2  0  0  0  0
  1  4  1  0  0  0  0
  5  4  1  0  0  0  0
  6  5  2  0  0  0  0
  7  6  1  0  0  0  0
  7  8  1  0  0  0  0
  9  7  2  0  0  0  0
 10  9  1  0  0  0  0
  4 10  2  0  0  0  0
  1 11  1  0  0  0  0
 12 11  2  0  0  0  0
 13 12  1  0  0  0  0
 14 13  2  0  0  0  0
 14 15  1  0  0  0  0
 16 14  1  0  0  0  0
 17 16  2  0  0  0  0
 11 17  1  0  0  0  0
M  END
> <ChemID>
100016

> <CAS>
80-09-1

> <Original_SMILES>
Oc1ccc(cc1)S(=O)(=O)c1ccc(O)cc1

> <preferred_name>
4,4'-Sulfonyldiphenol

> <dsstox_substance_id>
DTXSID3022409

> <dsstox_compound_id>
DTXCID602409

> <Canonical_QSARr>
OC1C=CC(=CC=1)S(=O)(=O)C1C=CC(O)=CC=1

> <InChI_Code_QSARr>
InChI=1S/C12H10O4S/c13-9-1-5-11(6-2-9)17(15,16)12-7-3-10(14)4-8-12/h1-8,13-14H

> <InChI Key_QSARr>
VPWNQTHUCYMVMZ-UHFFFAOYSA-N

> <Salt_Solvent>


> <Salt_Solvent_ID>
0

> <RT>
4.309

$$$$
Row16
  Mrv171c012261910382D          

 17 17  0  0  0  0            999 V2000
    3.5996   -0.7827    0.0000 C   0  0  0  0  0  0  0  0  0  0  0  0
    4.3140   -1.1952    0.0000 O   0  0  0  0  0  0  0  0  0  0  0  0
    5.0285   -0.7827    0.0000 C   0  0  0  0  0  0  0  0  0  0  0  0
    5.7430   -1.1952    0.0000 C   0  0  0  0  0  0  0  0  0  0  0  0
    6.4574   -0.7827    0.0000 C   0  0  0  0  0  0  0  0  0  0  0  0
    7.1719   -1.1952    0.0000 C   0  0  0  0  0  0  0  0  0  0  0  0
    7.8864   -0.7827    0.0000 C   0  0  0  0  0  0  0  0  0  0  0  0
    8.6009   -1.1952    0.0000 C   0  0  0  0  0  0  0  0  0  0  0  0
    9.3153   -0.7827    0.0000 C   0  0  0  0  0  0  0  0  0  0  0  0
    3.5996    0.0423    0.0000 O   0  0  0  0  0  0  0  0  0  0  0  0
    2.8851   -1.1952    0.0000 C   0  0  0  0  0  0  0  0  0  0  0  0
    2.1706   -0.7827    0.0000 C   0  0  0  0  0  0  0  0  0  0  0  0
    1.4561   -1.1952    0.0000 C   0  0  0  0  0  0  0  0  0  0  0  0
    1.4561   -2.0202    0.0000 C   0  0  0  0  0  0  0  0  0  0  0  0
    0.7417   -2.4327    0.0000 O   0  0  0  0  0  0  0  0  0  0  0  0
    2.1706   -2.4327    0.0000 C   0  0  0  0  0  0  0  0  0  0  0  0
    2.8851   -2.0202    0.0000 C   0  0  0  0  0  0  0  0  0  0  0  0
  1  2  1  0  0  0  0
  2  3  1  0  0  0  0
  3  4  1  0  0  0  0
  4  5  1  0  0  0  0
  5  6  1  0  0  0  0
  6  7  1  0  0  0  0
  7  8  1  0  0  0  0
  8  9  1  0  0  0  0
  1 10  2  0  0  0  0
  1 11  1  0  0  0  0
 12 11  1  0  0  0  0
 13 12  2  0  0  0  0
 14 13  1  0  0  0  0
 14 15  1  0  0  0  0
 16 14  2  0  0  0  0
 17 16  1  0  0  0  0
 11 17  2  0  0  0  0
M  END
> <ChemID>
100017

> <CAS>
1085-12-7

> <Original_SMILES>
CCCCCCCOC(=O)c1ccc(O)cc1

> <preferred_name>
Heptylparaben

> <dsstox_substance_id>
DTXSID4022523

> <dsstox_compound_id>
DTXCID002523

> <Canonical_QSARr>
CCCCCCCOC(=O)C1C=CC(O)=CC=1

> <InChI_Code_QSARr>
InChI=1S/C14H20O3/c1-2-3-4-5-6-11-17-14(16)12-7-9-13(15)10-8-12/h7-10,15H,2-6,11H2,1H3

> <InChI Key_QSARr>
ZTJORNVITHUQJA-UHFFFAOYSA-N

> <Salt_Solvent>


> <Salt_Solvent_ID>
0

> <RT>
25.085

$$$$
Row17
  Mrv171c012261910382D          

 13 13  0  0  0  0            999 V2000
    3.0896   -0.6457    0.0000 C   0  0  0  0  0  0  0  0  0  0  0  0
    3.8041   -1.0582    0.0000 O   0  0  0  0  0  0  0  0  0  0  0  0
    4.5185   -0.6457    0.0000 C   0  0  0  0  0  0  0  0  0  0  0  0
    5.2330   -1.0582    0.0000 C   0  0  0  0  0  0  0  0  0  0  0  0
    5.9475   -0.6457    0.0000 C   0  0  0  0  0  0  0  0  0  0  0  0
    3.0896    0.1793    0.0000 O   0  0  0  0  0  0  0  0  0  0  0  0
    2.3751   -1.0582    0.0000 C   0  0  0  0  0  0  0  0  0  0  0  0
    1.6607   -0.6457    0.0000 C   0  0  0  0  0  0  0  0  0  0  0  0
    0.9462   -1.0582    0.0000 C   0  0  0  0  0  0  0  0  0  0  0  0
    0.9462   -1.8832    0.0000 C   0  0  0  0  0  0  0  0  0  0  0  0
    0.2317   -2.2957    0.0000 O   0  0  0  0  0  0  0  0  0  0  0  0
    1.6607   -2.2957    0.0000 C   0  0  0  0  0  0  0  0  0  0  0  0
    2.3751   -1.8832    0.0000 C   0  0  0  0  0  0  0  0  0  0  0  0
  1  2  1  0  0  0  0
  2  3  1  0  0  0  0
  3  4  1  0  0  0  0
  4  5  1  0  0  0  0
  1  6  2  0  0  0  0
  1  7  1  0  0  0  0
  8  7  1  0  0  0  0
  9  8  2  0  0  0  0
 10  9  1  0  0  0  0
 10 11  1  0  0  0  0
 12 10  2  0  0  0  0
 13 12  1  0  0  0  0
  7 13  2  0  0  0  0
M  END
> <ChemID>
100018

> <CAS>
94-13-3

> <Original_SMILES>
CCCOC(=O)c1ccc(O)cc1

> <preferred_name>
Propylparaben

> <dsstox_substance_id>
DTXSID4022527

> <dsstox_compound_id>
DTXCID602527

> <Canonical_QSARr>
CCCOC(=O)C1C=CC(O)=CC=1

> <InChI_Code_QSARr>
InChI=1S/C10H12O3/c1-2-7-13-10(12)8-3-5-9(11)6-4-8/h3-6,11H,2,7H2,1H3

> <InChI Key_QSARr>
QELSKZZBTMNZEB-UHFFFAOYSA-N

> <Salt_Solvent>


> <Salt_Solvent_ID>
0

> <RT>
13.703

$$$$
Row18
  Mrv171c012261910382D          

 11 11  0  0  0  0            999 V2000
    2.2361   -2.3085    0.0000 C   0  0  0  0  0  0  0  0  0  0  0  0
    1.5217   -2.7210    0.0000 O   0  0  0  0  0  0  0  0  0  0  0  0
    1.5217   -3.5460    0.0000 C   0  0  0  0  0  0  0  0  0  0  0  0
    2.9506   -2.7210    0.0000 O   0  0  0  0  0  0  0  0  0  0  0  0
    2.2361   -1.4835    0.0000 C   0  0  0  0  0  0  0  0  0  0  0  0
    2.9506   -1.0710    0.0000 C   0  0  0  0  0  0  0  0  0  0  0  0
    2.9506   -0.2460    0.0000 C   0  0  0  0  0  0  0  0  0  0  0  0
    2.2361    0.1665    0.0000 C   0  0  0  0  0  0  0  0  0  0  0  0
    2.2361    0.9915    0.0000 O   0  0  0  0  0  0  0  0  0  0  0  0
    1.5217   -0.2460    0.0000 C   0  0  0  0  0  0  0  0  0  0  0  0
    1.5217   -1.0710    0.0000 C   0  0  0  0  0  0  0  0  0  0  0  0
  1  2  1  0  0  0  0
  2  3  1  0  0  0  0
  1  4  2  0  0  0  0
  1  5  1  0  0  0  0
  6  5  1  0  0  0  0
  7  6  2  0  0  0  0
  8  7  1  0  0  0  0
  8  9  1  0  0  0  0
 10  8  2  0  0  0  0
 11 10  1  0  0  0  0
  5 11  2  0  0  0  0
M  END
> <ChemID>
100019

> <CAS>
99-76-3

> <Original_SMILES>
COC(=O)c1ccc(O)cc1

> <preferred_name>
Methylparaben

> <dsstox_substance_id>
DTXSID4022529

> <dsstox_compound_id>
DTXCID402529

> <Canonical_QSARr>
COC(=O)C1C=CC(O)=CC=1

> <InChI_Code_QSARr>
InChI=1S/C8H8O3/c1-11-8(10)6-2-4-7(9)5-3-6/h2-5,9H,1H3

> <InChI Key_QSARr>
LXCFILQKKLGQFO-UHFFFAOYSA-N

> <Salt_Solvent>


> <Salt_Solvent_ID>
0

> <RT>
5.231

$$$$
Row19
  Mrv171c012261910382D          

 16 17  0  0  0  0            999 V2000
    0.9842   -2.4287    0.0000 C   0  0  0  0  0  0  0  0  0  0  0  0
    0.9842   -3.2537    0.0000 N   0  0  0  0  0  0  0  0  0  0  0  0
    1.6987   -3.6662    0.0000 C   0  0  0  0  0  0  0  0  0  0  0  0
    2.4132   -3.2537    0.0000 N   0  0  0  0  0  0  0  0  0  0  0  0
    2.4132   -2.4287    0.0000 C   0  0  0  0  0  0  0  0  0  0  0  0
    3.1276   -2.0162    0.0000 O   0  0  0  0  0  0  0  0  0  0  0  0
    1.6987   -2.0162    0.0000 C   0  0  0  0  0  0  0  0  0  0  0  0
    2.0860   -1.2877    0.0000 C   0  0  0  0  0  0  0  0  0  0  0  0
    2.9105   -1.2590    0.0000 C   0  0  0  0  0  0  0  0  0  0  0  0
    1.3114   -1.2877    0.0000 C   0  0  0  0  0  0  0  0  0  0  0  0
    1.7486   -0.5881    0.0000 C   0  0  0  0  0  0  0  0  0  0  0  0
    1.3612    0.1403    0.0000 C   0  0  0  0  0  0  0  0  0  0  0  0
    0.5367    0.1691    0.0000 C   0  0  0  0  0  0  0  0  0  0  0  0
    0.0996   -0.5305    0.0000 C   0  0  0  0  0  0  0  0  0  0  0  0
    0.4869   -1.2590    0.0000 C   0  0  0  0  0  0  0  0  0  0  0  0
    0.2697   -2.0162    0.0000 O   0  0  0  0  0  0  0  0  0  0  0  0
  2  1  1  0  0  0  0
  3  2  1  0  0  0  0
  4  3  1  0  0  0  0
  5  4  1  0  0  0  0
  5  6  2  0  0  0  0
  7  5  1  0  0  0  0
  1  7  1  0  0  0  0
  7  8  1  0  0  0  0
  8  9  1  0  0  0  0
  7 10  1  0  0  0  0
 11 10  1  0  0  0  0
 12 11  2  0  0  0  0
 13 12  1  0  0  0  0
 14 13  2  0  0  0  0
 15 14  1  0  0  0  0
 10 15  2  0  0  0  0
  1 16  2  0  0  0  0
M  END
> <ChemID>
100020

> <CAS>
125-33-7

> <Original_SMILES>
CCC1(C(=O)NCNC1=O)c1ccccc1

> <preferred_name>
Primidone

> <dsstox_substance_id>
DTXSID7023510

> <dsstox_compound_id>
DTXCID603510

> <Canonical_QSARr>
CCC1(C(=O)NCNC1=O)C1C=CC=CC=1

> <InChI_Code_QSARr>
InChI=1S/C12H14N2O2/c1-2-12(9-6-4-3-5-7-9)10(15)13-8-14-11(12)16/h3-7H,2,8H2,1H3,(H,13,15)(H,14,16)

> <InChI Key_QSARr>
DQMZLTXERSFNPB-UHFFFAOYSA-N

> <Salt_Solvent>


> <Salt_Solvent_ID>
0

> <RT>
11.085

$$$$
Row20
  Mrv171c012261910382D          

 21 24  0  0  0  0            999 V2000
    2.3556   -1.1737    0.0000 C   0  0  0  0  0  0  0  0  0  0  0  0
    2.0753   -1.9496    0.0000 C   0  0  0  0  0  0  0  0  0  0  0  0
    2.8874   -1.8044    0.0000 C   0  0  0  0  0  0  0  0  0  0  0  0
    3.1677   -1.0285    0.0000 C   0  0  0  0  0  0  0  0  0  0  0  0
    3.9798   -0.8833    0.0000 C   0  0  0  0  0  0  0  0  0  0  0  0
    4.5116   -1.5140    0.0000 C   0  0  0  0  0  0  0  0  0  0  0  0
    4.2313   -2.2899    0.0000 C   0  0  0  0  0  0  0  0  0  0  0  0
    3.4192   -2.4351    0.0000 C   0  0  0  0  0  0  0  0  0  0  0  0
    3.1389   -3.2110    0.0000 C   0  0  0  0  0  0  0  0  0  0  0  0
    2.3268   -3.3562    0.0000 C   0  0  0  0  0  0  0  0  0  0  0  0
    1.7950   -2.7255    0.0000 C   0  0  0  0  0  0  0  0  0  0  0  0
    0.9828   -2.8707    0.0000 C   0  0  0  0  0  0  0  0  0  0  0  0
    0.4510   -2.2400    0.0000 C   0  0  0  0  0  0  0  0  0  0  0  0
   -0.3611   -2.3853    0.0000 O   0  0  0  0  0  0  0  0  0  0  0  0
    0.7313   -1.4641    0.0000 C   0  0  0  0  0  0  0  0  0  0  0  0
    1.5434   -1.3189    0.0000 C   0  0  0  0  0  0  0  0  0  0  0  0
    4.8827   -2.7962    0.0000 C   0  0  0  0  0  0  0  0  0  0  0  0
    5.5655   -2.3333    0.0000 C   0  0  0  0  0  0  0  0  0  0  0  0
    5.3362   -1.5408    0.0000 C   0  0  0  0  0  0  0  0  0  0  0  0
    5.8425   -0.8894    0.0000 O   0  0  0  0  0  0  0  0  0  0  0  0
    4.8715   -0.7716    0.0000 C   0  0  0  0  0  0  0  0  0  0  0  0
  1  2  1  0  0  0  0
  3  2  1  0  0  0  0
  3  4  1  0  0  0  0
  4  5  1  0  0  0  0
  5  6  1  0  0  0  0
  7  6  1  0  0  0  0
  7  8  1  0  0  0  0
  8  3  1  0  0  0  0
  9  8  1  0  0  0  0
 10  9  1  0  0  0  0
 11 10  1  0  0  0  0
 11  2  1  0  0  0  0
 12 11  2  0  0  0  0
 13 12  1  0  0  0  0
 13 14  2  0  0  0  0
 15 13  1  0  0  0  0
 16 15  1  0  0  0  0
  2 16  1  0  0  0  0
 17  7  1  0  0  0  0
 18 17  1  0  0  0  0
 19 18  1  0  0  0  0
  6 19  1  0  0  0  0
 19 20  2  0  0  0  0
  6 21  1  0  0  0  0
M  END
> <ChemID>
100021

> <CAS>
63-05-8

> <Original_SMILES>
C[C@]12CCC(=O)C=C1CC[C@@H]1[C@@H]2CC[C@@]2(C)[C@H]1CCC2=O

> <preferred_name>
4-Androstene-3,17-dione

> <dsstox_substance_id>
DTXSID8024523

> <dsstox_compound_id>
DTXCID204523

> <Canonical_QSARr>
CC12CCC(=O)C=C1CCC1C2CCC2(C)C1CCC2=O

> <InChI_Code_QSARr>
InChI=1S/C19H26O2/c1-18-9-7-13(20)11-12(18)3-4-14-15-5-6-17(21)19(15,2)10-8-16(14)18/h11,14-16H,3-10H2,1-2H3

> <InChI Key_QSARr>
AEMFNILZOJDQLW-UHFFFAOYSA-N

> <Salt_Solvent>


> <Salt_Solvent_ID>
0

> <RT>
17.44

$$$$
Row21
  Mrv171c012261910382D          

 20 21  0  0  0  0            999 V2000
    3.4929   -3.6437    0.0000 C   0  0  0  0  0  0  0  0  0  0  0  0
    4.2074   -4.0562    0.0000 C   0  0  0  0  0  0  0  0  0  0  0  0
    3.4929   -2.8187    0.0000 C   0  0  0  0  0  0  0  0  0  0  0  0
    2.7785   -2.4062    0.0000 C   0  0  0  0  0  0  0  0  0  0  0  0
    2.7785   -1.5812    0.0000 C   0  0  0  0  0  0  0  0  0  0  0  0
    2.0640   -1.1687    0.0000 O   0  0  0  0  0  0  0  0  0  0  0  0
    3.4929   -1.1687    0.0000 C   0  0  0  0  0  0  0  0  0  0  0  0
    3.4929   -0.3437    0.0000 C   0  0  0  0  0  0  0  0  0  0  0  0
    4.2074    0.0688    0.0000 C   0  0  0  0  0  0  0  0  0  0  0  0
    4.2074    0.8938    0.0000 C   0  0  0  0  0  0  0  0  0  0  0  0
    4.9219    1.3063    0.0000 O   0  0  0  0  0  0  0  0  0  0  0  0
    3.4929    1.3063    0.0000 N   0  0  0  0  0  0  0  0  0  0  0  0
    2.7785    0.8938    0.0000 C   0  0  0  0  0  0  0  0  0  0  0  0
    2.0640    1.3063    0.0000 O   0  0  0  0  0  0  0  0  0  0  0  0
    2.7785    0.0688    0.0000 C   0  0  0  0  0  0  0  0  0  0  0  0
    2.0640   -2.8187    0.0000 C   0  0  0  0  0  0  0  0  0  0  0  0
    1.3495   -2.4062    0.0000 O   0  0  0  0  0  0  0  0  0  0  0  0
    2.0640   -3.6437    0.0000 C   0  0  0  0  0  0  0  0  0  0  0  0
    1.3495   -4.0562    0.0000 C   0  0  0  0  0  0  0  0  0  0  0  0
    2.7785   -4.0562    0.0000 C   0  0  0  0  0  0  0  0  0  0  0  0
  1  2  1  0  0  0  0
  3  1  1  0  0  0  0
  4  3  1  0  0  0  0
  4  5  1  0  0  0  0
  5  6  1  0  0  0  0
  5  7  1  0  0  0  0
  7  8  1  0  0  0  0
  9  8  1  0  0  0  0
 10  9  1  0  0  0  0
 10 11  2  0  0  0  0
 12 10  1  0  0  0  0
 13 12  1  0  0  0  0
 13 14  2  0  0  0  0
 15 13  1  0  0  0  0
  8 15  1  0  0  0  0
 16  4  1  0  0  0  0
 16 17  2  0  0  0  0
 18 16  1  0  0  0  0
 18 19  1  0  0  0  0
 20 18  1  0  0  0  0
  1 20  1  0  0  0  0
M  END
> <ChemID>
100022

> <CAS>
66-81-9

> <Original_SMILES>
C[C@@H]1C[C@@H]([C@H](O)CC2CC(=O)NC(=O)C2)C(=O)[C@@H](C)C1

> <preferred_name>
Cycloheximide

> <dsstox_substance_id>
DTXSID6024882

> <dsstox_compound_id>
DTXCID204882

> <Canonical_QSARr>
CC1CC(C(O)CC2CC(=O)NC(=O)C2)C(=O)C(C)C1

> <InChI_Code_QSARr>
InChI=1S/C15H23NO4/c1-8-3-9(2)15(20)11(4-8)12(17)5-10-6-13(18)16-14(19)7-10/h8-12,17H,3-7H2,1-2H3,(H,16,18,19)

> <InChI Key_QSARr>
YPHMISFOHDHNIV-UHFFFAOYSA-N

> <Salt_Solvent>


> <Salt_Solvent_ID>
0

> <RT>
7.277

$$$$
Row22
  Mrv171c012261910382D          

 24 26  0  0  0  0            999 V2000
    1.2282   -4.3234    0.0000 O   0  0  0  0  0  0  0  0  0  0  0  0
    1.9427   -3.9109    0.0000 C   0  0  0  0  0  0  0  0  0  0  0  0
    2.6571   -4.3234    0.0000 C   0  0  0  0  0  0  0  0  0  0  0  0
    2.6571   -5.1484    0.0000 C   0  0  0  0  0  0  0  0  0  0  0  0
    3.3716   -5.5609    0.0000 C   0  0  0  0  0  0  0  0  0  0  0  0
    4.0861   -5.1484    0.0000 C   0  0  0  0  0  0  0  0  0  0  0  0
    4.0861   -4.3234    0.0000 C   0  0  0  0  0  0  0  0  0  0  0  0
    3.3716   -3.9109    0.0000 C   0  0  0  0  0  0  0  0  0  0  0  0
    3.3716   -3.0859    0.0000 C   0  0  0  0  0  0  0  0  0  0  0  0
    4.0861   -2.6734    0.0000 O   0  0  0  0  0  0  0  0  0  0  0  0
    4.0861   -1.8484    0.0000 C   0  0  0  0  0  0  0  0  0  0  0  0
    4.8006   -1.4359    0.0000 C   0  0  0  0  0  0  0  0  0  0  0  0
    4.8006   -0.6109    0.0000 C   0  0  0  0  0  0  0  0  0  0  0  0
    4.0861   -0.1984    0.0000 C   0  0  0  0  0  0  0  0  0  0  0  0
    3.3716   -0.6109    0.0000 C   0  0  0  0  0  0  0  0  0  0  0  0
    3.3716   -1.4359    0.0000 C   0  0  0  0  0  0  0  0  0  0  0  0
    2.6571   -2.6734    0.0000 O   0  0  0  0  0  0  0  0  0  0  0  0
    1.9427   -3.0859    0.0000 O   0  0  0  0  0  0  0  0  0  0  0  0
    1.2282   -2.6734    0.0000 C   0  0  0  0  0  0  0  0  0  0  0  0
    1.2282   -1.8484    0.0000 C   0  0  0  0  0  0  0  0  0  0  0  0
    0.5137   -1.4359    0.0000 C   0  0  0  0  0  0  0  0  0  0  0  0
   -0.2007   -1.8484    0.0000 C   0  0  0  0  0  0  0  0  0  0  0  0
   -0.2007   -2.6734    0.0000 C   0  0  0  0  0  0  0  0  0  0  0  0
    0.5137   -3.0859    0.0000 C   0  0  0  0  0  0  0  0  0  0  0  0
  1  2  2  0  0  0  0
  2  3  1  0  0  0  0
  4  3  1  0  0  0  0
  5  4  2  0  0  0  0
  6  5  1  0  0  0  0
  7  6  2  0  0  0  0
  8  7  1  0  0  0  0
  3  8  2  0  0  0  0
  8  9  1  0  0  0  0
  9 10  1  0  0  0  0
 10 11  1  0  0  0  0
 12 11  1  0  0  0  0
 13 12  1  0  0  0  0
 14 13  1  0  0  0  0
 15 14  1  0  0  0  0
 16 15  1  0  0  0  0
 11 16  1  0  0  0  0
  9 17  2  0  0  0  0
  2 18  1  0  0  0  0
 18 19  1  0  0  0  0
 20 19  1  0  0  0  0
 21 20  1  0  0  0  0
 22 21  1  0  0  0  0
 23 22  1  0  0  0  0
 24 23  1  0  0  0  0
 19 24  1  0  0  0  0
M  END
> <ChemID>
100024

> <CAS>
84-61-7

> <Original_SMILES>
O=C(OC1CCCCC1)c1ccccc1C(=O)OC1CCCCC1

> <preferred_name>
Dicyclohexyl phthalate

> <dsstox_substance_id>
DTXSID5025021

> <dsstox_compound_id>
DTXCID505021

> <Canonical_QSARr>
O=C(OC1CCCCC1)C1C=CC=CC=1C(=O)OC1CCCCC1

> <InChI_Code_QSARr>
InChI=1S/C20H26O4/c21-19(23-15-9-3-1-4-10-15)17-13-7-8-14-18(17)20(22)24-16-11-5-2-6-12-16/h7-8,13-16H,1-6,9-12H2

> <InChI Key_QSARr>
VOWAEIGWURALJQ-UHFFFAOYSA-N

> <Salt_Solvent>


> <Salt_Solvent_ID>
0

> <RT>
28.82

$$$$
Row23
  Mrv171c012261910382D          

 19 20  0  0  0  0            999 V2000
    3.8689   -0.5420    0.0000 O   0  0  0  0  0  0  0  0  0  0  0  0
    3.8689   -1.3670    0.0000 C   0  0  0  0  0  0  0  0  0  0  0  0
    3.1545   -1.7795    0.0000 N   0  0  0  0  0  0  0  0  0  0  0  0
    2.4400   -1.3670    0.0000 C   0  0  0  0  0  0  0  0  0  0  0  0
    2.4400   -0.5420    0.0000 C   0  0  0  0  0  0  0  0  0  0  0  0
    1.7255   -0.1295    0.0000 C   0  0  0  0  0  0  0  0  0  0  0  0
    1.7255    0.6955    0.0000 Cl  0  0  0  0  0  0  0  0  0  0  0  0
    1.0111   -0.5420    0.0000 C   0  0  0  0  0  0  0  0  0  0  0  0
    0.2966   -0.1295    0.0000 Cl  0  0  0  0  0  0  0  0  0  0  0  0
    1.0111   -1.3670    0.0000 C   0  0  0  0  0  0  0  0  0  0  0  0
    1.7255   -1.7795    0.0000 C   0  0  0  0  0  0  0  0  0  0  0  0
    4.5834   -1.7795    0.0000 N   0  0  0  0  0  0  0  0  0  0  0  0
    5.2979   -1.3670    0.0000 C   0  0  0  0  0  0  0  0  0  0  0  0
    6.0123   -1.7795    0.0000 C   0  0  0  0  0  0  0  0  0  0  0  0
    6.7268   -1.3670    0.0000 C   0  0  0  0  0  0  0  0  0  0  0  0
    6.7268   -0.5420    0.0000 C   0  0  0  0  0  0  0  0  0  0  0  0
    7.4413   -0.1295    0.0000 Cl  0  0  0  0  0  0  0  0  0  0  0  0
    6.0123   -0.1295    0.0000 C   0  0  0  0  0  0  0  0  0  0  0  0
    5.2979   -0.5420    0.0000 C   0  0  0  0  0  0  0  0  0  0  0  0
  1  2  2  0  0  0  0
  2  3  1  0  0  0  0
  3  4  1  0  0  0  0
  5  4  1  0  0  0  0
  6  5  2  0  0  0  0
  6  7  1  0  0  0  0
  8  6  1  0  0  0  0
  8  9  1  0  0  0  0
 10  8  2  0  0  0  0
 11 10  1  0  0  0  0
  4 11  2  0  0  0  0
  2 12  1  0  0  0  0
 12 13  1  0  0  0  0
 14 13  1  0  0  0  0
 15 14  2  0  0  0  0
 16 15  1  0  0  0  0
 16 17  1  0  0  0  0
 18 16  2  0  0  0  0
 19 18  1  0  0  0  0
 13 19  2  0  0  0  0
M  END
> <ChemID>
100025

> <CAS>
101-20-2

> <Original_SMILES>
O=C(Nc1cc(Cl)c(Cl)cc1)Nc1ccc(Cl)cc1

> <preferred_name>
Triclocarban

> <dsstox_substance_id>
DTXSID4026214

> <dsstox_compound_id>
DTXCID906214

> <Canonical_QSARr>
O=C(NC1C=C(Cl)C(Cl)=CC=1)NC1C=CC(Cl)=CC=1

> <InChI_Code_QSARr>
InChI=1S/C13H9Cl3N2O/c14-8-1-3-9(4-2-8)17-13(19)18-10-5-6-11(15)12(16)7-10/h1-7H,(H2,17,18,19)

> <InChI Key_QSARr>
ICUTUKXCWQYESQ-UHFFFAOYSA-N

> <Salt_Solvent>


> <Salt_Solvent_ID>
0

> <RT>
24.726

$$$$
Row24
  Mrv171c012261910382D          

 29 28  0  0  0  0            999 V2000
    2.9640   -4.3663    0.0000 C   0  0  0  0  0  0  0  0  0  0  0  0
    2.9640   -5.1913    0.0000 O   0  0  0  0  0  0  0  0  0  0  0  0
    2.2495   -3.9538    0.0000 O   0  0  0  0  0  0  0  0  0  0  0  0
    1.5351   -4.3663    0.0000 C   0  0  0  0  0  0  0  0  0  0  0  0
    0.8206   -3.9538    0.0000 C   0  0  0  0  0  0  0  0  0  0  0  0
    0.8206   -3.1288    0.0000 C   0  0  0  0  0  0  0  0  0  0  0  0
    0.1061   -2.7163    0.0000 C   0  0  0  0  0  0  0  0  0  0  0  0
    0.1061   -4.3663    0.0000 C   0  0  0  0  0  0  0  0  0  0  0  0
   -0.6084   -3.9538    0.0000 C   0  0  0  0  0  0  0  0  0  0  0  0
   -1.3228   -4.3663    0.0000 C   0  0  0  0  0  0  0  0  0  0  0  0
   -2.0373   -3.9538    0.0000 C   0  0  0  0  0  0  0  0  0  0  0  0
    3.6785   -3.9538    0.0000 C   0  0  0  0  0  0  0  0  0  0  0  0
    4.3929   -4.3663    0.0000 C   0  0  0  0  0  0  0  0  0  0  0  0
    5.1074   -3.9538    0.0000 C   0  0  0  0  0  0  0  0  0  0  0  0
    5.8219   -4.3663    0.0000 C   0  0  0  0  0  0  0  0  0  0  0  0
    6.5364   -3.9538    0.0000 C   0  0  0  0  0  0  0  0  0  0  0  0
    7.2508   -4.3663    0.0000 C   0  0  0  0  0  0  0  0  0  0  0  0
    7.9653   -3.9538    0.0000 C   0  0  0  0  0  0  0  0  0  0  0  0
    8.6798   -4.3663    0.0000 C   0  0  0  0  0  0  0  0  0  0  0  0
    8.6798   -5.1913    0.0000 O   0  0  0  0  0  0  0  0  0  0  0  0
    9.3942   -3.9538    0.0000 O   0  0  0  0  0  0  0  0  0  0  0  0
   10.1087   -4.3663    0.0000 C   0  0  0  0  0  0  0  0  0  0  0  0
   10.8232   -3.9538    0.0000 C   0  0  0  0  0  0  0  0  0  0  0  0
   10.8232   -3.1288    0.0000 C   0  0  0  0  0  0  0  0  0  0  0  0
   11.5377   -2.7163    0.0000 C   0  0  0  0  0  0  0  0  0  0  0  0
   11.5377   -4.3663    0.0000 C   0  0  0  0  0  0  0  0  0  0  0  0
   12.2521   -3.9538    0.0000 C   0  0  0  0  0  0  0  0  0  0  0  0
   12.9666   -4.3663    0.0000 C   0  0  0  0  0  0  0  0  0  0  0  0
   13.6811   -3.9538    0.0000 C   0  0  0  0  0  0  0  0  0  0  0  0
  1  2  2  0  0  0  0
  1  3  1  0  0  0  0
  3  4  1  0  0  0  0
  4  5  1  0  0  0  0
  5  6  1  0  0  0  0
  6  7  1  0  0  0  0
  5  8  1  0  0  0  0
  8  9  1  0  0  0  0
  9 10  1  0  0  0  0
 10 11  1  0  0  0  0
  1 12  1  0  0  0  0
 12 13  1  0  0  0  0
 13 14  1  0  0  0  0
 14 15  1  0  0  0  0
 15 16  1  0  0  0  0
 16 17  1  0  0  0  0
 17 18  1  0  0  0  0
 18 19  1  0  0  0  0
 19 20  2  0  0  0  0
 19 21  1  0  0  0  0
 21 22  1  0  0  0  0
 22 23  1  0  0  0  0
 23 24  1  0  0  0  0
 24 25  1  0  0  0  0
 23 26  1  0  0  0  0
 26 27  1  0  0  0  0
 27 28  1  0  0  0  0
 28 29  1  0  0  0  0
M  END
> <ChemID>
100026

> <CAS>
103-24-2

> <Original_SMILES>
CCCCC(COC(=O)CCCCCCCC(=O)OCC(CCCC)CC)CC

> <preferred_name>
Bis(2-ethylhexyl) nonanedioate

> <dsstox_substance_id>
DTXSID3026697

> <dsstox_compound_id>
DTXCID306697

> <Canonical_QSARr>
CCCCC(COC(=O)CCCCCCCC(=O)OCC(CCCC)CC)CC

> <InChI_Code_QSARr>
InChI=1S/C25H48O4/c1-5-9-16-22(7-3)20-28-24(26)18-14-12-11-13-15-19-25(27)29-21-23(8-4)17-10-6-2/h22-23H,5-21H2,1-4H3

> <InChI Key_QSARr>
ZDWGXBPVPXVXMQ-UHFFFAOYSA-N

> <Salt_Solvent>


> <Salt_Solvent_ID>
0

> <RT>
39.73

$$$$
Row25
  Mrv171c012261910382D          

 15 14  0  0  0  0            999 V2000
    1.4413   -0.5491    0.0000 C   0  0  0  0  0  0  0  0  0  0  0  0
    0.7269   -0.1366    0.0000 N   0  0  0  0  0  0  0  0  0  0  0  0
    0.0124   -0.5491    0.0000 C   0  0  0  0  0  0  0  0  0  0  0  0
    0.7269    0.6884    0.0000 C   0  0  0  0  0  0  0  0  0  0  0  0
    2.1558   -0.1366    0.0000 C   0  0  0  0  0  0  0  0  0  0  0  0
    2.8703   -0.5491    0.0000 C   0  0  0  0  0  0  0  0  0  0  0  0
    3.5847   -0.1366    0.0000 C   0  0  0  0  0  0  0  0  0  0  0  0
    4.2992   -0.5491    0.0000 C   0  0  0  0  0  0  0  0  0  0  0  0
    5.0137   -0.1366    0.0000 C   0  0  0  0  0  0  0  0  0  0  0  0
    5.7282   -0.5491    0.0000 C   0  0  0  0  0  0  0  0  0  0  0  0
    6.4426   -0.1366    0.0000 C   0  0  0  0  0  0  0  0  0  0  0  0
    7.1571   -0.5491    0.0000 C   0  0  0  0  0  0  0  0  0  0  0  0
    7.8716   -0.1366    0.0000 C   0  0  0  0  0  0  0  0  0  0  0  0
    8.5860   -0.5491    0.0000 C   0  0  0  0  0  0  0  0  0  0  0  0
    9.3005   -0.1366    0.0000 C   0  0  0  0  0  0  0  0  0  0  0  0
  1  2  1  0  0  0  0
  2  3  1  0  0  0  0
  2  4  1  0  0  0  0
  1  5  1  0  0  0  0
  5  6  1  0  0  0  0
  6  7  1  0  0  0  0
  7  8  1  0  0  0  0
  8  9  1  0  0  0  0
  9 10  1  0  0  0  0
 10 11  1  0  0  0  0
 11 12  1  0  0  0  0
 12 13  1  0  0  0  0
 13 14  1  0  0  0  0
 14 15  1  0  0  0  0
M  END
> <ChemID>
100027

> <CAS>
112-18-5

> <Original_SMILES>
CCCCCCCCCCCCN(C)C

> <preferred_name>
N,N-Dimethyldodecan-1-amine

> <dsstox_substance_id>
DTXSID1026906

> <dsstox_compound_id>
DTXCID806906

> <Canonical_QSARr>
CCCCCCCCCCCCN(C)C

> <InChI_Code_QSARr>
InChI=1S/C14H31N/c1-4-5-6-7-8-9-10-11-12-13-14-15(2)3/h4-14H2,1-3H3

> <InChI Key_QSARr>
YWFWDNVOPHGWMX-UHFFFAOYSA-N

> <Salt_Solvent>


> <Salt_Solvent_ID>
0

> <RT>
24.35

$$$$
Row26
  Mrv171c012261910382D          

 17 16  0  0  0  0            999 V2000
    0.6455   -0.4150    0.0000 C   0  0  0  0  0  0  0  0  0  0  0  0
   -0.0690   -0.0025    0.0000 O   0  0  0  0  0  0  0  0  0  0  0  0
    1.3600   -0.0025    0.0000 C   0  0  0  0  0  0  0  0  0  0  0  0
    2.0744   -0.4150    0.0000 O   0  0  0  0  0  0  0  0  0  0  0  0
    2.7889   -0.0025    0.0000 C   0  0  0  0  0  0  0  0  0  0  0  0
    3.5034   -0.4150    0.0000 C   0  0  0  0  0  0  0  0  0  0  0  0
    4.2179   -0.0025    0.0000 O   0  0  0  0  0  0  0  0  0  0  0  0
    4.9323   -0.4150    0.0000 C   0  0  0  0  0  0  0  0  0  0  0  0
    5.6468   -0.0025    0.0000 C   0  0  0  0  0  0  0  0  0  0  0  0
    6.3613   -0.4150    0.0000 O   0  0  0  0  0  0  0  0  0  0  0  0
    7.0757   -0.0025    0.0000 C   0  0  0  0  0  0  0  0  0  0  0  0
    7.7902   -0.4150    0.0000 C   0  0  0  0  0  0  0  0  0  0  0  0
    8.5047   -0.0025    0.0000 O   0  0  0  0  0  0  0  0  0  0  0  0
    9.2192   -0.4150    0.0000 C   0  0  0  0  0  0  0  0  0  0  0  0
    9.9336   -0.0025    0.0000 C   0  0  0  0  0  0  0  0  0  0  0  0
   10.6481   -0.4150    0.0000 C   0  0  0  0  0  0  0  0  0  0  0  0
   11.3626   -0.0025    0.0000 C   0  0  0  0  0  0  0  0  0  0  0  0
  1  2  1  0  0  0  0
  1  3  1  0  0  0  0
  3  4  1  0  0  0  0
  4  5  1  0  0  0  0
  5  6  1  0  0  0  0
  6  7  1  0  0  0  0
  7  8  1  0  0  0  0
  8  9  1  0  0  0  0
  9 10  1  0  0  0  0
 10 11  1  0  0  0  0
 11 12  1  0  0  0  0
 12 13  1  0  0  0  0
 13 14  1  0  0  0  0
 14 15  1  0  0  0  0
 15 16  1  0  0  0  0
 16 17  1  0  0  0  0
M  END
> <ChemID>
100028

> <CAS>
1559-34-8

> <Original_SMILES>
CCCCOCCOCCOCCOCCO

> <preferred_name>
3,6,9,12-Tetraoxahexadecan-1-ol

> <dsstox_substance_id>
DTXSID2027412

> <dsstox_compound_id>
DTXCID607412

> <Canonical_QSARr>
CCCCOCCOCCOCCOCCO

> <InChI_Code_QSARr>
InChI=1S/C12H26O5/c1-2-3-5-14-7-9-16-11-12-17-10-8-15-6-4-13/h13H,2-12H2,1H3

> <InChI Key_QSARr>
MXVMODFDROLTFD-UHFFFAOYSA-N

> <Salt_Solvent>


> <Salt_Solvent_ID>
0

> <RT>
9.4

$$$$
Row27
  Mrv171c012261910382D          

 26 27  0  0  0  0            999 V2000
    7.2857   -2.1223    0.0000 C   0  0  0  0  0  0  0  0  0  0  0  0
    6.5712   -2.5348    0.0000 O   0  0  0  0  0  0  0  0  0  0  0  0
    5.8567   -2.1223    0.0000 C   0  0  0  0  0  0  0  0  0  0  0  0
    5.1423   -2.5348    0.0000 C   0  0  0  0  0  0  0  0  0  0  0  0
    4.4278   -2.1223    0.0000 C   0  0  0  0  0  0  0  0  0  0  0  0
    3.7133   -2.5348    0.0000 C   0  0  0  0  0  0  0  0  0  0  0  0
    3.7133   -3.3598    0.0000 C   0  0  0  0  0  0  0  0  0  0  0  0
    4.4278   -3.7723    0.0000 C   0  0  0  0  0  0  0  0  0  0  0  0
    5.1423   -3.3598    0.0000 C   0  0  0  0  0  0  0  0  0  0  0  0
    5.8567   -1.2973    0.0000 O   0  0  0  0  0  0  0  0  0  0  0  0
    8.0001   -2.5348    0.0000 C   0  0  0  0  0  0  0  0  0  0  0  0
    8.7146   -2.1223    0.0000 O   0  0  0  0  0  0  0  0  0  0  0  0
    9.4291   -2.5348    0.0000 C   0  0  0  0  0  0  0  0  0  0  0  0
   10.1436   -2.1223    0.0000 C   0  0  0  0  0  0  0  0  0  0  0  0
   10.8580   -2.5348    0.0000 O   0  0  0  0  0  0  0  0  0  0  0  0
   11.5725   -2.1223    0.0000 C   0  0  0  0  0  0  0  0  0  0  0  0
   12.2870   -2.5348    0.0000 C   0  0  0  0  0  0  0  0  0  0  0  0
   13.0014   -2.1223    0.0000 O   0  0  0  0  0  0  0  0  0  0  0  0
   13.7159   -2.5348    0.0000 C   0  0  0  0  0  0  0  0  0  0  0  0
   14.4304   -2.1223    0.0000 C   0  0  0  0  0  0  0  0  0  0  0  0
   15.1448   -2.5348    0.0000 C   0  0  0  0  0  0  0  0  0  0  0  0
   15.8593   -2.1223    0.0000 C   0  0  0  0  0  0  0  0  0  0  0  0
   15.8593   -1.2973    0.0000 C   0  0  0  0  0  0  0  0  0  0  0  0
   15.1448   -0.8848    0.0000 C   0  0  0  0  0  0  0  0  0  0  0  0
   14.4304   -1.2973    0.0000 C   0  0  0  0  0  0  0  0  0  0  0  0
   13.7159   -3.3598    0.0000 O   0  0  0  0  0  0  0  0  0  0  0  0
  1  2  1  0  0  0  0
  2  3  1  0  0  0  0
  3  4  1  0  0  0  0
  5  4  1  0  0  0  0
  6  5  2  0  0  0  0
  7  6  1  0  0  0  0
  8  7  2  0  0  0  0
  9  8  1  0  0  0  0
  4  9  2  0  0  0  0
  3 10  2  0  0  0  0
  1 11  1  0  0  0  0
 11 12  1  0  0  0  0
 12 13  1  0  0  0  0
 13 14  1  0  0  0  0
 14 15  1  0  0  0  0
 15 16  1  0  0  0  0
 16 17  1  0  0  0  0
 17 18  1  0  0  0  0
 18 19  1  0  0  0  0
 19 20  1  0  0  0  0
 21 20  1  0  0  0  0
 22 21  2  0  0  0  0
 23 22  1  0  0  0  0
 24 23  2  0  0  0  0
 25 24  1  0  0  0  0
 20 25  2  0  0  0  0
 19 26  2  0  0  0  0
M  END
> <ChemID>
100029

> <CAS>
120-56-9

> <Original_SMILES>
O=C(OCCOCCOCCOC(=O)c1ccccc1)c1ccccc1

> <preferred_name>
Triethylene glycol dibenzoate

> <dsstox_substance_id>
DTXSID7029611

> <dsstox_compound_id>
DTXCID809611

> <Canonical_QSARr>
O=C(OCCOCCOCCOC(=O)C1C=CC=CC=1)C1C=CC=CC=1

> <InChI_Code_QSARr>
InChI=1S/C20H22O6/c21-19(17-7-3-1-4-8-17)25-15-13-23-11-12-24-14-16-26-20(22)18-9-5-2-6-10-18/h1-10H,11-16H2

> <InChI Key_QSARr>
AHSGHEXYEABOKT-UHFFFAOYSA-N

> <Salt_Solvent>


> <Salt_Solvent_ID>
0

> <RT>
21.195

$$$$
Row28
  Mrv171c012261910382D          

 31 30  0  0  0  0            999 V2000
    6.6736   -5.4478    0.0000 C   0  0  0  0  0  0  0  0  0  0  0  0
    5.9591   -5.8603    0.0000 O   0  0  0  0  0  0  0  0  0  0  0  0
    7.3881   -5.8603    0.0000 O   0  0  0  0  0  0  0  0  0  0  0  0
    6.6736   -4.6228    0.0000 C   0  0  0  0  0  0  0  0  0  0  0  0
    7.4986   -4.6228    0.0000 F   0  0  0  0  0  0  0  0  0  0  0  0
    5.8486   -4.6228    0.0000 F   0  0  0  0  0  0  0  0  0  0  0  0
    6.6736   -3.7978    0.0000 C   0  0  0  0  0  0  0  0  0  0  0  0
    7.4986   -3.7978    0.0000 F   0  0  0  0  0  0  0  0  0  0  0  0
    5.8486   -3.7978    0.0000 F   0  0  0  0  0  0  0  0  0  0  0  0
    6.6736   -2.9728    0.0000 C   0  0  0  0  0  0  0  0  0  0  0  0
    7.4986   -2.9728    0.0000 F   0  0  0  0  0  0  0  0  0  0  0  0
    5.8486   -2.9728    0.0000 F   0  0  0  0  0  0  0  0  0  0  0  0
    6.6736   -2.1478    0.0000 C   0  0  0  0  0  0  0  0  0  0  0  0
    7.4986   -2.1478    0.0000 F   0  0  0  0  0  0  0  0  0  0  0  0
    5.8486   -2.1478    0.0000 F   0  0  0  0  0  0  0  0  0  0  0  0
    6.6736   -1.3228    0.0000 C   0  0  0  0  0  0  0  0  0  0  0  0
    7.4986   -1.3228    0.0000 F   0  0  0  0  0  0  0  0  0  0  0  0
    5.8486   -1.3228    0.0000 F   0  0  0  0  0  0  0  0  0  0  0  0
    6.6736   -0.4978    0.0000 C   0  0  0  0  0  0  0  0  0  0  0  0
    7.4986   -0.4978    0.0000 F   0  0  0  0  0  0  0  0  0  0  0  0
    5.8486   -0.4978    0.0000 F   0  0  0  0  0  0  0  0  0  0  0  0
    6.6736    0.3272    0.0000 C   0  0  0  0  0  0  0  0  0  0  0  0
    7.4986    0.3272    0.0000 F   0  0  0  0  0  0  0  0  0  0  0  0
    5.8486    0.3272    0.0000 F   0  0  0  0  0  0  0  0  0  0  0  0
    6.6736    1.1522    0.0000 C   0  0  0  0  0  0  0  0  0  0  0  0
    7.4986    1.1522    0.0000 F   0  0  0  0  0  0  0  0  0  0  0  0
    5.8486    1.1522    0.0000 F   0  0  0  0  0  0  0  0  0  0  0  0
    6.6736    1.9772    0.0000 C   0  0  0  0  0  0  0  0  0  0  0  0
    6.6736    2.8022    0.0000 F   0  0  0  0  0  0  0  0  0  0  0  0
    7.4986    1.9772    0.0000 F   0  0  0  0  0  0  0  0  0  0  0  0
    5.8486    1.9772    0.0000 F   0  0  0  0  0  0  0  0  0  0  0  0
  1  2  2  0  0  0  0
  1  3  1  0  0  0  0
  1  4  1  0  0  0  0
  4  5  1  0  0  0  0
  4  6  1  0  0  0  0
  4  7  1  0  0  0  0
  7  8  1  0  0  0  0
  7  9  1  0  0  0  0
  7 10  1  0  0  0  0
 10 11  1  0  0  0  0
 10 12  1  0  0  0  0
 10 13  1  0  0  0  0
 13 14  1  0  0  0  0
 13 15  1  0  0  0  0
 13 16  1  0  0  0  0
 16 17  1  0  0  0  0
 16 18  1  0  0  0  0
 16 19  1  0  0  0  0
 19 20  1  0  0  0  0
 19 21  1  0  0  0  0
 19 22  1  0  0  0  0
 22 23  1  0  0  0  0
 22 24  1  0  0  0  0
 22 25  1  0  0  0  0
 25 26  1  0  0  0  0
 25 27  1  0  0  0  0
 25 28  1  0  0  0  0
 28 29  1  0  0  0  0
 28 30  1  0  0  0  0
 28 31  1  0  0  0  0
M  END
> <ChemID>
100030

> <CAS>
335-76-2

> <Original_SMILES>
OC(=O)C(F)(F)C(F)(F)C(F)(F)C(F)(F)C(F)(F)C(F)(F)C(F)(F)C(F)(F)C(F)(F)F

> <preferred_name>
Perfluorodecanoic acid

> <dsstox_substance_id>
DTXSID3031860

> <dsstox_compound_id>
DTXCID1011860

> <Canonical_QSARr>
OC(=O)C(F)(F)C(F)(F)C(F)(F)C(F)(F)C(F)(F)C(F)(F)C(F)(F)C(F)(F)C(F)(F)F

> <InChI_Code_QSARr>
InChI=1S/C10HF19O2/c11-2(12,1(30)31)3(13,14)4(15,16)5(17,18)6(19,20)7(21,22)8(23,24)9(25,26)10(27,28)29/h(H,30,31)

> <InChI Key_QSARr>
PCIUEQPBYFRTEM-UHFFFAOYSA-N

> <Salt_Solvent>


> <Salt_Solvent_ID>
0

> <RT>
20.815

$$$$
Row29
  Mrv171c012261910382D          

 28 27  0  0  0  0            999 V2000
    0.1816   -3.2983    0.0000 C   0  0  0  0  0  0  0  0  0  0  0  0
   -0.5329   -3.7108    0.0000 O   0  0  0  0  0  0  0  0  0  0  0  0
    0.8961   -3.7108    0.0000 O   0  0  0  0  0  0  0  0  0  0  0  0
    0.1816   -2.4733    0.0000 C   0  0  0  0  0  0  0  0  0  0  0  0
    1.0066   -2.4733    0.0000 F   0  0  0  0  0  0  0  0  0  0  0  0
   -0.6434   -2.4733    0.0000 F   0  0  0  0  0  0  0  0  0  0  0  0
    0.1816   -1.6483    0.0000 C   0  0  0  0  0  0  0  0  0  0  0  0
    1.0066   -1.6483    0.0000 F   0  0  0  0  0  0  0  0  0  0  0  0
   -0.6434   -1.6483    0.0000 F   0  0  0  0  0  0  0  0  0  0  0  0
    0.1816   -0.8233    0.0000 C   0  0  0  0  0  0  0  0  0  0  0  0
    1.0066   -0.8233    0.0000 F   0  0  0  0  0  0  0  0  0  0  0  0
   -0.6434   -0.8233    0.0000 F   0  0  0  0  0  0  0  0  0  0  0  0
    0.1816    0.0017    0.0000 C   0  0  0  0  0  0  0  0  0  0  0  0
    1.0066    0.0017    0.0000 F   0  0  0  0  0  0  0  0  0  0  0  0
   -0.6434    0.0017    0.0000 F   0  0  0  0  0  0  0  0  0  0  0  0
    0.1816    0.8267    0.0000 C   0  0  0  0  0  0  0  0  0  0  0  0
    1.0066    0.8267    0.0000 F   0  0  0  0  0  0  0  0  0  0  0  0
   -0.6434    0.8267    0.0000 F   0  0  0  0  0  0  0  0  0  0  0  0
    0.1816    1.6517    0.0000 C   0  0  0  0  0  0  0  0  0  0  0  0
    1.0066    1.6517    0.0000 F   0  0  0  0  0  0  0  0  0  0  0  0
   -0.6434    1.6517    0.0000 F   0  0  0  0  0  0  0  0  0  0  0  0
    0.1816    2.4767    0.0000 C   0  0  0  0  0  0  0  0  0  0  0  0
    1.0066    2.4767    0.0000 F   0  0  0  0  0  0  0  0  0  0  0  0
   -0.6434    2.4767    0.0000 F   0  0  0  0  0  0  0  0  0  0  0  0
    0.1816    3.3017    0.0000 C   0  0  0  0  0  0  0  0  0  0  0  0
    0.1816    4.1267    0.0000 F   0  0  0  0  0  0  0  0  0  0  0  0
    1.0066    3.3017    0.0000 F   0  0  0  0  0  0  0  0  0  0  0  0
   -0.6434    3.3017    0.0000 F   0  0  0  0  0  0  0  0  0  0  0  0
  1  2  2  0  0  0  0
  1  3  1  0  0  0  0
  1  4  1  0  0  0  0
  4  5  1  0  0  0  0
  4  6  1  0  0  0  0
  4  7  1  0  0  0  0
  7  8  1  0  0  0  0
  7  9  1  0  0  0  0
  7 10  1  0  0  0  0
 10 11  1  0  0  0  0
 10 12  1  0  0  0  0
 10 13  1  0  0  0  0
 13 14  1  0  0  0  0
 13 15  1  0  0  0  0
 13 16  1  0  0  0  0
 16 17  1  0  0  0  0
 16 18  1  0  0  0  0
 16 19  1  0  0  0  0
 19 20  1  0  0  0  0
 19 21  1  0  0  0  0
 19 22  1  0  0  0  0
 22 23  1  0  0  0  0
 22 24  1  0  0  0  0
 22 25  1  0  0  0  0
 25 26  1  0  0  0  0
 25 27  1  0  0  0  0
 25 28  1  0  0  0  0
M  END
> <ChemID>
100031

> <CAS>
375-95-1

> <Original_SMILES>
OC(=O)C(F)(F)C(F)(F)C(F)(F)C(F)(F)C(F)(F)C(F)(F)C(F)(F)C(F)(F)F

> <preferred_name>
Perfluorononanoic acid

> <dsstox_substance_id>
DTXSID8031863

> <dsstox_compound_id>
DTXCID6011863

> <Canonical_QSARr>
OC(=O)C(F)(F)C(F)(F)C(F)(F)C(F)(F)C(F)(F)C(F)(F)C(F)(F)C(F)(F)F

> <InChI_Code_QSARr>
InChI=1S/C9HF17O2/c10-2(11,1(27)28)3(12,13)4(14,15)5(16,17)6(18,19)7(20,21)8(22,23)9(24,25)26/h(H,27,28)

> <InChI Key_QSARr>
UZUFPBIDKMEQEQ-UHFFFAOYSA-N

> <Salt_Solvent>


> <Salt_Solvent_ID>
0

> <RT>
20.605

$$$$
Row30
  Mrv171c012261910382D          

 25 24  0  0  0  0            999 V2000
   -1.1792    3.3156    0.0000 O   0  0  0  0  0  0  0  0  0  0  0  0
   -1.5917    2.6011    0.0000 C   0  0  0  0  0  0  0  0  0  0  0  0
   -1.1792    1.8866    0.0000 C   0  0  0  0  0  0  0  0  0  0  0  0
   -0.7667    1.1722    0.0000 C   0  0  0  0  0  0  0  0  0  0  0  0
   -0.3542    0.4577    0.0000 C   0  0  0  0  0  0  0  0  0  0  0  0
    0.0583   -0.2568    0.0000 C   0  0  0  0  0  0  0  0  0  0  0  0
    0.4708   -0.9713    0.0000 C   0  0  0  0  0  0  0  0  0  0  0  0
    0.8833   -1.6857    0.0000 C   0  0  0  0  0  0  0  0  0  0  0  0
    1.2958   -2.4002    0.0000 C   0  0  0  0  0  0  0  0  0  0  0  0
    1.7083   -3.1147    0.0000 F   0  0  0  0  0  0  0  0  0  0  0  0
    0.5813   -2.8127    0.0000 F   0  0  0  0  0  0  0  0  0  0  0  0
    2.0103   -1.9877    0.0000 F   0  0  0  0  0  0  0  0  0  0  0  0
    0.1688   -2.0982    0.0000 F   0  0  0  0  0  0  0  0  0  0  0  0
    1.5978   -1.2732    0.0000 F   0  0  0  0  0  0  0  0  0  0  0  0
   -0.2437   -1.3838    0.0000 F   0  0  0  0  0  0  0  0  0  0  0  0
    1.1853   -0.5588    0.0000 F   0  0  0  0  0  0  0  0  0  0  0  0
   -0.6562   -0.6693    0.0000 F   0  0  0  0  0  0  0  0  0  0  0  0
    0.7728    0.1557    0.0000 F   0  0  0  0  0  0  0  0  0  0  0  0
   -1.0687    0.0452    0.0000 F   0  0  0  0  0  0  0  0  0  0  0  0
    0.3603    0.8702    0.0000 F   0  0  0  0  0  0  0  0  0  0  0  0
   -1.4812    0.7597    0.0000 F   0  0  0  0  0  0  0  0  0  0  0  0
   -0.0522    1.5847    0.0000 F   0  0  0  0  0  0  0  0  0  0  0  0
   -1.8937    1.4741    0.0000 F   0  0  0  0  0  0  0  0  0  0  0  0
   -0.4647    2.2991    0.0000 F   0  0  0  0  0  0  0  0  0  0  0  0
   -2.4167    2.6011    0.0000 O   0  0  0  0  0  0  0  0  0  0  0  0
  1  2  1  0  0  0  0
  2  3  1  0  0  0  0
  3  4  1  0  0  0  0
  4  5  1  0  0  0  0
  5  6  1  0  0  0  0
  6  7  1  0  0  0  0
  7  8  1  0  0  0  0
  8  9  1  0  0  0  0
  9 10  1  0  0  0  0
  9 11  1  0  0  0  0
  9 12  1  0  0  0  0
  8 13  1  0  0  0  0
  8 14  1  0  0  0  0
  7 15  1  0  0  0  0
  7 16  1  0  0  0  0
  6 17  1  0  0  0  0
  6 18  1  0  0  0  0
  5 19  1  0  0  0  0
  5 20  1  0  0  0  0
  4 21  1  0  0  0  0
  4 22  1  0  0  0  0
  3 23  1  0  0  0  0
  3 24  1  0  0  0  0
  2 25  2  0  0  0  0
M  END
> <ChemID>
100032

> <CAS>
335-67-1

> <Original_SMILES>
OC(=O)C(F)(F)C(F)(F)C(F)(F)C(F)(F)C(F)(F)C(F)(F)C(F)(F)F

> <preferred_name>
Perfluorooctanoic acid

> <dsstox_substance_id>
DTXSID8031865

> <dsstox_compound_id>
DTXCID6011865

> <Canonical_QSARr>
OC(=O)C(F)(F)C(F)(F)C(F)(F)C(F)(F)C(F)(F)C(F)(F)C(F)(F)F

> <InChI_Code_QSARr>
InChI=1S/C8HF15O2/c9-2(10,1(24)25)3(11,12)4(13,14)5(15,16)6(17,18)7(19,20)8(21,22)23/h(H,24,25)

> <InChI Key_QSARr>
SNGREZUHAYWORS-UHFFFAOYSA-N

> <Salt_Solvent>


> <Salt_Solvent_ID>
0

> <RT>
16.051

$$$$
Row31
  Mrv171c012261910382D          

 17 18  0  0  0  0            999 V2000
    2.1895   -1.9816    0.0000 O   0  0  0  0  0  0  0  0  0  0  0  0
    2.1895   -1.1566    0.0000 C   0  0  0  0  0  0  0  0  0  0  0  0
    2.9039   -0.7441    0.0000 C   0  0  0  0  0  0  0  0  0  0  0  0
    2.9039    0.0809    0.0000 C   0  0  0  0  0  0  0  0  0  0  0  0
    2.1895    0.4934    0.0000 C   0  0  0  0  0  0  0  0  0  0  0  0
    2.1895    1.3184    0.0000 Cl  0  0  0  0  0  0  0  0  0  0  0  0
    1.4750    0.0809    0.0000 C   0  0  0  0  0  0  0  0  0  0  0  0
    1.4750   -0.7441    0.0000 C   0  0  0  0  0  0  0  0  0  0  0  0
    0.7605   -1.1566    0.0000 O   0  0  0  0  0  0  0  0  0  0  0  0
    2.9039   -2.3941    0.0000 C   0  0  0  0  0  0  0  0  0  0  0  0
    2.9039   -3.2191    0.0000 C   0  0  0  0  0  0  0  0  0  0  0  0
    3.6184   -3.6316    0.0000 C   0  0  0  0  0  0  0  0  0  0  0  0
    4.3329   -3.2191    0.0000 C   0  0  0  0  0  0  0  0  0  0  0  0
    5.0473   -3.6316    0.0000 Cl  0  0  0  0  0  0  0  0  0  0  0  0
    4.3329   -2.3941    0.0000 C   0  0  0  0  0  0  0  0  0  0  0  0
    3.6184   -1.9816    0.0000 C   0  0  0  0  0  0  0  0  0  0  0  0
    3.6184   -1.1566    0.0000 Cl  0  0  0  0  0  0  0  0  0  0  0  0
  1  2  1  0  0  0  0
  3  2  1  0  0  0  0
  4  3  2  0  0  0  0
  5  4  1  0  0  0  0
  5  6  1  0  0  0  0
  7  5  2  0  0  0  0
  8  7  1  0  0  0  0
  2  8  2  0  0  0  0
  8  9  1  0  0  0  0
  1 10  1  0  0  0  0
 11 10  2  0  0  0  0
 12 11  1  0  0  0  0
 13 12  2  0  0  0  0
 13 14  1  0  0  0  0
 15 13  1  0  0  0  0
 16 15  2  0  0  0  0
 10 16  1  0  0  0  0
 16 17  1  0  0  0  0
M  END
> <ChemID>
100033

> <CAS>
3380-34-5

> <Original_SMILES>
Oc1cc(Cl)ccc1Oc1ccc(Cl)cc1Cl

> <preferred_name>
Triclosan

> <dsstox_substance_id>
DTXSID5032498

> <dsstox_compound_id>
DTXCID3012498

> <Canonical_QSARr>
OC1C=C(Cl)C=CC=1OC1=CC=C(Cl)C=C1Cl

> <InChI_Code_QSARr>
InChI=1S/C12H7Cl3O2/c13-7-1-3-11(9(15)5-7)17-12-4-2-8(14)6-10(12)16/h1-6,16H

> <InChI Key_QSARr>
XEFQLINVKFYRCS-UHFFFAOYSA-N

> <Salt_Solvent>


> <Salt_Solvent_ID>
0

> <RT>
25.19

$$$$
Row32
  Mrv171c012261910382D          

 32 33  0  0  0  0            999 V2000
    0.3889   -3.6715    0.0000 C   0  0  0  0  0  0  0  0  0  0  0  0
    1.1034   -4.0840    0.0000 N   0  0  0  0  0  0  0  0  0  0  0  0
    1.8179   -3.6715    0.0000 C   0  0  0  0  0  0  0  0  0  0  0  0
    2.5324   -4.0840    0.0000 N   0  0  0  0  0  0  0  0  0  0  0  0
    3.2468   -3.6715    0.0000 C   0  0  0  0  0  0  0  0  0  0  0  0
    3.9613   -4.0840    0.0000 C   0  0  0  0  0  0  0  0  0  0  0  0
    4.6758   -3.6715    0.0000 C   0  0  0  0  0  0  0  0  0  0  0  0
    5.3902   -4.0840    0.0000 Cl  0  0  0  0  0  0  0  0  0  0  0  0
    4.6758   -2.8465    0.0000 C   0  0  0  0  0  0  0  0  0  0  0  0
    5.3902   -2.4340    0.0000 O   0  0  0  0  0  0  0  0  0  0  0  0
    5.3902   -1.6090    0.0000 C   0  0  0  0  0  0  0  0  0  0  0  0
    4.5652   -1.6090    0.0000 F   0  0  0  0  0  0  0  0  0  0  0  0
    6.2152   -1.6090    0.0000 F   0  0  0  0  0  0  0  0  0  0  0  0
    5.3902   -0.7840    0.0000 C   0  0  0  0  0  0  0  0  0  0  0  0
    4.6758   -0.3715    0.0000 F   0  0  0  0  0  0  0  0  0  0  0  0
    6.1047   -0.3715    0.0000 C   0  0  0  0  0  0  0  0  0  0  0  0
    6.8192    0.0410    0.0000 F   0  0  0  0  0  0  0  0  0  0  0  0
    5.6922    0.3430    0.0000 F   0  0  0  0  0  0  0  0  0  0  0  0
    6.5172   -1.0859    0.0000 F   0  0  0  0  0  0  0  0  0  0  0  0
    3.9613   -2.4340    0.0000 C   0  0  0  0  0  0  0  0  0  0  0  0
    3.2468   -2.8465    0.0000 C   0  0  0  0  0  0  0  0  0  0  0  0
    2.5324   -2.4340    0.0000 Cl  0  0  0  0  0  0  0  0  0  0  0  0
    1.8179   -2.8465    0.0000 O   0  0  0  0  0  0  0  0  0  0  0  0
   -0.3255   -4.0840    0.0000 C   0  0  0  0  0  0  0  0  0  0  0  0
   -1.0400   -3.6715    0.0000 C   0  0  0  0  0  0  0  0  0  0  0  0
   -1.0400   -2.8465    0.0000 F   0  0  0  0  0  0  0  0  0  0  0  0
   -1.7545   -4.0840    0.0000 C   0  0  0  0  0  0  0  0  0  0  0  0
   -1.7545   -4.9090    0.0000 C   0  0  0  0  0  0  0  0  0  0  0  0
   -1.0400   -5.3215    0.0000 C   0  0  0  0  0  0  0  0  0  0  0  0
   -0.3255   -4.9090    0.0000 C   0  0  0  0  0  0  0  0  0  0  0  0
    0.3889   -5.3215    0.0000 F   0  0  0  0  0  0  0  0  0  0  0  0
    0.3889   -2.8465    0.0000 O   0  0  0  0  0  0  0  0  0  0  0  0
  1  2  1  0  0  0  0
  2  3  1  0  0  0  0
  3  4  1  0  0  0  0
  4  5  1  0  0  0  0
  6  5  1  0  0  0  0
  7  6  2  0  0  0  0
  7  8  1  0  0  0  0
  9  7  1  0  0  0  0
  9 10  1  0  0  0  0
 10 11  1  0  0  0  0
 11 12  1  0  0  0  0
 11 13  1  0  0  0  0
 11 14  1  0  0  0  0
 14 15  1  0  0  0  0
 14 16  1  0  0  0  0
 16 17  1  0  0  0  0
 16 18  1  0  0  0  0
 16 19  1  0  0  0  0
 20  9  2  0  0  0  0
 21 20  1  0  0  0  0
  5 21  2  0  0  0  0
 21 22  1  0  0  0  0
  3 23  2  0  0  0  0
  1 24  1  0  0  0  0
 25 24  1  0  0  0  0
 25 26  1  0  0  0  0
 27 25  2  0  0  0  0
 28 27  1  0  0  0  0
 29 28  2  0  0  0  0
 30 29  1  0  0  0  0
 24 30  2  0  0  0  0
 30 31  1  0  0  0  0
  1 32  2  0  0  0  0
M  END
> <ChemID>
100034

> <CAS>
103055-07-8

> <Original_SMILES>
O=C(Nc1cc(Cl)c(cc1Cl)OC(F)(F)C(F)C(F)(F)F)NC(=O)c1c(F)cccc1F

> <preferred_name>
Lufenuron

> <dsstox_substance_id>
DTXSID5034357

> <dsstox_compound_id>
DTXCID3014357

> <Canonical_QSARr>
O=C(NC1C=C(Cl)C(=CC=1Cl)OC(F)(F)C(F)C(F)(F)F)NC(=O)C1C(F)=CC=CC=1F

> <InChI_Code_QSARr>
InChI=1S/C17H8Cl2F8N2O3/c18-6-5-11(32-17(26,27)14(22)16(23,24)25)7(19)4-10(6)28-15(31)29-13(30)12-8(20)2-1-3-9(12)21/h1-5,14H,(H2,28,29,30,31)

> <InChI Key_QSARr>
PWPJGUXAGUPAHP-UHFFFAOYSA-N

> <Salt_Solvent>


> <Salt_Solvent_ID>
0

> <RT>
27.985

$$$$
Row33
  Mrv171c012261910382D          

 26 27  0  0  0  0            999 V2000
    3.0241   -1.6018    0.0000 N   0  0  0  0  0  0  0  0  0  0  0  0
    3.2790   -0.8172    0.0000 N   0  0  0  0  0  0  0  0  0  0  0  0
    2.6116   -0.3322    0.0000 C   0  0  0  0  0  0  0  0  0  0  0  0
    2.6116    0.4928    0.0000 C   0  0  0  0  0  0  0  0  0  0  0  0
    2.6116    1.3178    0.0000 N   0  0  0  0  0  0  0  0  0  0  0  0
    1.9441   -0.8172    0.0000 C   0  0  0  0  0  0  0  0  0  0  0  0
    1.1595   -0.5622    0.0000 S   0  0  0  0  0  0  0  0  0  0  0  0
    0.5464   -1.1142    0.0000 O   0  0  0  0  0  0  0  0  0  0  0  0
    0.9880    0.2448    0.0000 C   0  0  0  0  0  0  0  0  0  0  0  0
    0.8164    1.0517    0.0000 F   0  0  0  0  0  0  0  0  0  0  0  0
    0.1810    0.0732    0.0000 F   0  0  0  0  0  0  0  0  0  0  0  0
    1.7949    0.4163    0.0000 F   0  0  0  0  0  0  0  0  0  0  0  0
    2.1991   -1.6018    0.0000 C   0  0  0  0  0  0  0  0  0  0  0  0
    1.7141   -2.2692    0.0000 N   0  0  0  0  0  0  0  0  0  0  0  0
    3.5090   -2.2692    0.0000 C   0  0  0  0  0  0  0  0  0  0  0  0
    3.1734   -3.0229    0.0000 C   0  0  0  0  0  0  0  0  0  0  0  0
    2.3529   -3.1091    0.0000 Cl  0  0  0  0  0  0  0  0  0  0  0  0
    3.6583   -3.6903    0.0000 C   0  0  0  0  0  0  0  0  0  0  0  0
    4.4788   -3.6041    0.0000 C   0  0  0  0  0  0  0  0  0  0  0  0
    4.9638   -4.2715    0.0000 C   0  0  0  0  0  0  0  0  0  0  0  0
    5.4487   -4.9390    0.0000 F   0  0  0  0  0  0  0  0  0  0  0  0
    4.2963   -4.7565    0.0000 F   0  0  0  0  0  0  0  0  0  0  0  0
    5.6312   -3.7866    0.0000 F   0  0  0  0  0  0  0  0  0  0  0  0
    4.8144   -2.8504    0.0000 C   0  0  0  0  0  0  0  0  0  0  0  0
    4.3295   -2.1830    0.0000 C   0  0  0  0  0  0  0  0  0  0  0  0
    4.6650   -1.4293    0.0000 Cl  0  0  0  0  0  0  0  0  0  0  0  0
  2  1  1  0  0  0  0
  3  2  2  0  0  0  0
  3  4  1  0  0  0  0
  4  5  3  0  0  0  0
  6  3  1  0  0  0  0
  6  7  1  0  0  0  0
  7  8  2  0  0  0  0
  7  9  1  0  0  0  0
  9 10  1  0  0  0  0
  9 11  1  0  0  0  0
  9 12  1  0  0  0  0
 13  6  2  0  0  0  0
  1 13  1  0  0  0  0
 13 14  1  0  0  0  0
  1 15  1  0  0  0  0
 16 15  1  0  0  0  0
 16 17  1  0  0  0  0
 18 16  2  0  0  0  0
 19 18  1  0  0  0  0
 19 20  1  0  0  0  0
 20 21  1  0  0  0  0
 20 22  1  0  0  0  0
 20 23  1  0  0  0  0
 24 19  2  0  0  0  0
 25 24  1  0  0  0  0
 15 25  2  0  0  0  0
 25 26  1  0  0  0  0
M  END
> <ChemID>
100035

> <CAS>
120068-37-3

> <Original_SMILES>
Nc1c(c(C#N)[n][n]1-c1c(Cl)cc(cc1Cl)C(F)(F)F)S(=O)C(F)(F)F

> <preferred_name>
Fipronil

> <dsstox_substance_id>
DTXSID4034609

> <dsstox_compound_id>
DTXCID2014609

> <Canonical_QSARr>
NC1=C(C(C#N)=NN1C1C(Cl)=CC(=CC=1Cl)C(F)(F)F)S(=O)C(F)(F)F

> <InChI_Code_QSARr>
InChI=1S/C12H4Cl2F6N4OS/c13-5-1-4(11(15,16)17)2-6(14)8(5)24-10(22)9(7(3-21)23-24)26(25)12(18,19)20/h1-2H,22H2

> <InChI Key_QSARr>
ZOCSXAVNDGMNBV-UHFFFAOYSA-N

> <Salt_Solvent>


> <Salt_Solvent_ID>
0

> <RT>
22.58

$$$$
Row34
  Mrv171c012261910382D          

 22 21  0  0  0  0            999 V2000
    3.9614    0.9948    0.0000 C   0  0  0  0  0  0  0  0  0  0  0  0
    4.3739    1.7092    0.0000 F   0  0  0  0  0  0  0  0  0  0  0  0
    3.2469    1.4073    0.0000 F   0  0  0  0  0  0  0  0  0  0  0  0
    4.6759    0.5823    0.0000 F   0  0  0  0  0  0  0  0  0  0  0  0
    3.5489    0.2803    0.0000 C   0  0  0  0  0  0  0  0  0  0  0  0
    2.8344    0.6928    0.0000 F   0  0  0  0  0  0  0  0  0  0  0  0
    4.2634   -0.1322    0.0000 F   0  0  0  0  0  0  0  0  0  0  0  0
    3.1364   -0.4342    0.0000 C   0  0  0  0  0  0  0  0  0  0  0  0
    2.4219   -0.0217    0.0000 F   0  0  0  0  0  0  0  0  0  0  0  0
    3.8509   -0.8467    0.0000 F   0  0  0  0  0  0  0  0  0  0  0  0
    2.7239   -1.1487    0.0000 C   0  0  0  0  0  0  0  0  0  0  0  0
    2.0094   -0.7362    0.0000 F   0  0  0  0  0  0  0  0  0  0  0  0
    3.4384   -1.5612    0.0000 F   0  0  0  0  0  0  0  0  0  0  0  0
    2.3114   -1.8631    0.0000 C   0  0  0  0  0  0  0  0  0  0  0  0
    1.5969   -1.4506    0.0000 F   0  0  0  0  0  0  0  0  0  0  0  0
    3.0259   -2.2756    0.0000 F   0  0  0  0  0  0  0  0  0  0  0  0
    1.8989   -2.5776    0.0000 C   0  0  0  0  0  0  0  0  0  0  0  0
    1.1844   -2.1651    0.0000 F   0  0  0  0  0  0  0  0  0  0  0  0
    2.6134   -2.9901    0.0000 F   0  0  0  0  0  0  0  0  0  0  0  0
    1.4864   -3.2921    0.0000 C   0  0  0  0  0  0  0  0  0  0  0  0
    1.8989   -4.0065    0.0000 O   0  0  0  0  0  0  0  0  0  0  0  0
    0.6614   -3.2921    0.0000 O   0  0  0  0  0  0  0  0  0  0  0  0
  1  2  1  0  0  0  0
  1  3  1  0  0  0  0
  1  4  1  0  0  0  0
  1  5  1  0  0  0  0
  5  6  1  0  0  0  0
  5  7  1  0  0  0  0
  5  8  1  0  0  0  0
  8  9  1  0  0  0  0
  8 10  1  0  0  0  0
  8 11  1  0  0  0  0
 11 12  1  0  0  0  0
 11 13  1  0  0  0  0
 11 14  1  0  0  0  0
 14 15  1  0  0  0  0
 14 16  1  0  0  0  0
 14 17  1  0  0  0  0
 17 18  1  0  0  0  0
 17 19  1  0  0  0  0
 17 20  1  0  0  0  0
 20 21  2  0  0  0  0
 20 22  1  0  0  0  0
M  END
> <ChemID>
100036

> <CAS>
375-85-9

> <Original_SMILES>
OC(=O)C(F)(F)C(F)(F)C(F)(F)C(F)(F)C(F)(F)C(F)(F)F

> <preferred_name>
Perfluoroheptanoic acid

> <dsstox_substance_id>
DTXSID1037303

> <dsstox_compound_id>
DTXCID9017303

> <Canonical_QSARr>
OC(=O)C(F)(F)C(F)(F)C(F)(F)C(F)(F)C(F)(F)C(F)(F)F

> <InChI_Code_QSARr>
InChI=1S/C7HF13O2/c8-2(9,1(21)22)3(10,11)4(12,13)5(14,15)6(16,17)7(18,19)20/h(H,21,22)

> <InChI Key_QSARr>
ZWBAMYVPMDSJGQ-UHFFFAOYSA-N

> <Salt_Solvent>


> <Salt_Solvent_ID>
0

> <RT>
12.95

$$$$
Row35
  Mrv171c012261910382D          

 12 12  0  0  0  0            999 V2000
    3.8080   -3.2998    0.0000 C   0  0  0  0  0  0  0  0  0  0  0  0
    3.0935   -2.8873    0.0000 C   0  0  0  0  0  0  0  0  0  0  0  0
    3.0935   -2.0623    0.0000 N   0  0  0  0  0  0  0  0  0  0  0  0
    2.3790   -1.6498    0.0000 C   0  0  0  0  0  0  0  0  0  0  0  0
    2.3790   -0.8248    0.0000 N   0  0  0  0  0  0  0  0  0  0  0  0
    1.6646   -0.4123    0.0000 C   0  0  0  0  0  0  0  0  0  0  0  0
    1.6646    0.4127    0.0000 N   0  0  0  0  0  0  0  0  0  0  0  0
    0.9501   -0.8248    0.0000 N   0  0  0  0  0  0  0  0  0  0  0  0
    0.9501   -1.6498    0.0000 C   0  0  0  0  0  0  0  0  0  0  0  0
    0.2356   -2.0623    0.0000 Cl  0  0  0  0  0  0  0  0  0  0  0  0
    1.6646   -2.0623    0.0000 N   0  0  0  0  0  0  0  0  0  0  0  0
    2.3790   -3.2998    0.0000 C   0  0  0  0  0  0  0  0  0  0  0  0
  1  2  1  0  0  0  0
  2  3  1  0  0  0  0
  3  4  1  0  0  0  0
  5  4  1  0  0  0  0
  6  5  2  0  0  0  0
  6  7  1  0  0  0  0
  8  6  1  0  0  0  0
  9  8  2  0  0  0  0
  9 10  1  0  0  0  0
 11  9  1  0  0  0  0
  4 11  2  0  0  0  0
  2 12  1  0  0  0  0
M  END
> <ChemID>
100037

> <CAS>
6190-65-4

> <Original_SMILES>
CC(C)Nc1[n]c(N)[n]c(Cl)[n]1

> <preferred_name>
Deethylatrazine

> <dsstox_substance_id>
DTXSID5037494

> <dsstox_compound_id>
DTXCID3017494

> <Canonical_QSARr>
CC(C)NC1N=C(N)N=C(Cl)N=1

> <InChI_Code_QSARr>
InChI=1S/C6H10ClN5/c1-3(2)9-6-11-4(7)10-5(8)12-6/h3H,1-2H3,(H3,8,9,10,11,12)

> <InChI Key_QSARr>
DFWFIQKMSFGDCQ-UHFFFAOYSA-N

> <Salt_Solvent>


> <Salt_Solvent_ID>
0

> <RT>
4.408

$$$$
Row36
  Mrv171c012261910382D          

 23 22  0  0  0  0            999 V2000
    4.6571   -3.3458    0.0000 C   0  0  0  0  0  0  0  0  0  0  0  0
    5.4821   -3.3458    0.0000 F   0  0  0  0  0  0  0  0  0  0  0  0
    3.8321   -3.3458    0.0000 F   0  0  0  0  0  0  0  0  0  0  0  0
    4.6571   -4.1708    0.0000 S   0  0  0  0  0  0  0  0  0  0  0  0
    4.6571   -4.9958    0.0000 O   0  0  0  0  0  0  0  0  0  0  0  0
    5.4821   -4.1708    0.0000 O   0  0  0  0  0  0  0  0  0  0  0  0
    3.8321   -4.1708    0.0000 O   0  0  0  0  0  0  0  0  0  0  0  0
    4.6571   -2.5208    0.0000 C   0  0  0  0  0  0  0  0  0  0  0  0
    5.4821   -2.5208    0.0000 F   0  0  0  0  0  0  0  0  0  0  0  0
    3.8321   -2.5208    0.0000 F   0  0  0  0  0  0  0  0  0  0  0  0
    4.6571   -1.6958    0.0000 C   0  0  0  0  0  0  0  0  0  0  0  0
    5.4821   -1.6958    0.0000 F   0  0  0  0  0  0  0  0  0  0  0  0
    3.8321   -1.6958    0.0000 F   0  0  0  0  0  0  0  0  0  0  0  0
    4.6571   -0.8708    0.0000 C   0  0  0  0  0  0  0  0  0  0  0  0
    5.4821   -0.8708    0.0000 F   0  0  0  0  0  0  0  0  0  0  0  0
    3.8321   -0.8708    0.0000 F   0  0  0  0  0  0  0  0  0  0  0  0
    4.6571   -0.0458    0.0000 C   0  0  0  0  0  0  0  0  0  0  0  0
    5.4821   -0.0458    0.0000 F   0  0  0  0  0  0  0  0  0  0  0  0
    3.8321   -0.0458    0.0000 F   0  0  0  0  0  0  0  0  0  0  0  0
    4.6571    0.7792    0.0000 C   0  0  0  0  0  0  0  0  0  0  0  0
    4.6571    1.6042    0.0000 F   0  0  0  0  0  0  0  0  0  0  0  0
    5.4821    0.7792    0.0000 F   0  0  0  0  0  0  0  0  0  0  0  0
    3.8321    0.7792    0.0000 F   0  0  0  0  0  0  0  0  0  0  0  0
  1  2  1  0  0  0  0
  1  3  1  0  0  0  0
  1  4  1  0  0  0  0
  4  5  2  0  0  0  0
  4  6  1  0  0  0  0
  4  7  2  0  0  0  0
  1  8  1  0  0  0  0
  8  9  1  0  0  0  0
  8 10  1  0  0  0  0
  8 11  1  0  0  0  0
 11 12  1  0  0  0  0
 11 13  1  0  0  0  0
 11 14  1  0  0  0  0
 14 15  1  0  0  0  0
 14 16  1  0  0  0  0
 14 17  1  0  0  0  0
 17 18  1  0  0  0  0
 17 19  1  0  0  0  0
 17 20  1  0  0  0  0
 20 21  1  0  0  0  0
 20 22  1  0  0  0  0
 20 23  1  0  0  0  0
M  END
> <ChemID>
100038

> <CAS>
355-46-4

> <Original_SMILES>
OS(=O)(=O)C(F)(F)C(F)(F)C(F)(F)C(F)(F)C(F)(F)C(F)(F)F

> <preferred_name>
Perfluorohexanesulfonic acid

> <dsstox_substance_id>
DTXSID7040150

> <dsstox_compound_id>
DTXCID2011859

> <Canonical_QSARr>
OS(=O)(=O)C(F)(F)C(F)(F)C(F)(F)C(F)(F)C(F)(F)C(F)(F)F

> <InChI_Code_QSARr>
InChI=1S/C6HF13O3S/c7-1(8,3(11,12)5(15,16)17)2(9,10)4(13,14)6(18,19)23(20,21)22/h(H,20,21,22)

> <InChI Key_QSARr>
QZHDEAJFRJCDMF-UHFFFAOYSA-N

> <Salt_Solvent>


> <Salt_Solvent_ID>
0

> <RT>
13.55

$$$$
Row37
  Mrv171c012261910382D          

 19 18  0  0  0  0            999 V2000
    3.1127   -1.4025    0.0000 C   0  0  0  0  0  0  0  0  0  0  0  0
    3.8272   -1.8150    0.0000 C   0  0  0  0  0  0  0  0  0  0  0  0
    4.5416   -1.4025    0.0000 C   0  0  0  0  0  0  0  0  0  0  0  0
    5.2561   -1.8150    0.0000 O   0  0  0  0  0  0  0  0  0  0  0  0
    5.2561   -2.6400    0.0000 C   0  0  0  0  0  0  0  0  0  0  0  0
    5.9706   -3.0525    0.0000 C   0  0  0  0  0  0  0  0  0  0  0  0
    4.5416   -0.5775    0.0000 O   0  0  0  0  0  0  0  0  0  0  0  0
    3.5252   -0.6881    0.0000 O   0  0  0  0  0  0  0  0  0  0  0  0
    2.3982   -0.9900    0.0000 C   0  0  0  0  0  0  0  0  0  0  0  0
    2.3982   -0.1650    0.0000 C   0  0  0  0  0  0  0  0  0  0  0  0
    3.1127    0.2475    0.0000 O   0  0  0  0  0  0  0  0  0  0  0  0
    1.6837    0.2475    0.0000 O   0  0  0  0  0  0  0  0  0  0  0  0
    1.6837    1.0725    0.0000 C   0  0  0  0  0  0  0  0  0  0  0  0
    0.9693    1.4850    0.0000 C   0  0  0  0  0  0  0  0  0  0  0  0
    2.7002   -2.1170    0.0000 C   0  0  0  0  0  0  0  0  0  0  0  0
    1.8752   -2.1170    0.0000 O   0  0  0  0  0  0  0  0  0  0  0  0
    3.1127   -2.8315    0.0000 O   0  0  0  0  0  0  0  0  0  0  0  0
    2.7002   -3.5460    0.0000 C   0  0  0  0  0  0  0  0  0  0  0  0
    1.8752   -3.5460    0.0000 C   0  0  0  0  0  0  0  0  0  0  0  0
  1  2  1  0  0  0  0
  2  3  1  0  0  0  0
  3  4  1  0  0  0  0
  4  5  1  0  0  0  0
  5  6  1  0  0  0  0
  3  7  2  0  0  0  0
  1  8  1  0  0  0  0
  1  9  1  0  0  0  0
  9 10  1  0  0  0  0
 10 11  2  0  0  0  0
 10 12  1  0  0  0  0
 12 13  1  0  0  0  0
 13 14  1  0  0  0  0
  1 15  1  0  0  0  0
 15 16  2  0  0  0  0
 15 17  1  0  0  0  0
 17 18  1  0  0  0  0
 18 19  1  0  0  0  0
M  END
> <ChemID>
100039

> <CAS>
77-93-0

> <Original_SMILES>
CCOC(=O)C(O)(CC(=O)OCC)CC(=O)OCC

> <preferred_name>
Triethyl citrate

> <dsstox_substance_id>
DTXSID0040701

> <dsstox_compound_id>
DTXCID8020701

> <Canonical_QSARr>
CCOC(=O)C(O)(CC(=O)OCC)CC(=O)OCC

> <InChI_Code_QSARr>
InChI=1S/C12H20O7/c1-4-17-9(13)7-12(16,11(15)19-6-3)8-10(14)18-5-2/h16H,4-8H2,1-3H3

> <InChI Key_QSARr>
DOOTYTYQINUNNV-UHFFFAOYSA-N

> <Salt_Solvent>


> <Salt_Solvent_ID>
0

> <RT>
10.68

$$$$
Row38
  Mrv171c012261910382D          

 13 12  0  0  0  0            999 V2000
    3.5837   -0.7162    0.0000 P   0  0  0  0  0  0  0  0  0  0  0  0
    4.4087   -0.7162    0.0000 O   0  0  0  0  0  0  0  0  0  0  0  0
    3.5837    0.1088    0.0000 O   0  0  0  0  0  0  0  0  0  0  0  0
    4.2982    0.5213    0.0000 C   0  0  0  0  0  0  0  0  0  0  0  0
    4.2982    1.3463    0.0000 C   0  0  0  0  0  0  0  0  0  0  0  0
    5.0126    1.7588    0.0000 C   0  0  0  0  0  0  0  0  0  0  0  0
    5.0126    2.5838    0.0000 C   0  0  0  0  0  0  0  0  0  0  0  0
    3.5837   -1.5412    0.0000 O   0  0  0  0  0  0  0  0  0  0  0  0
    2.8692   -1.9537    0.0000 C   0  0  0  0  0  0  0  0  0  0  0  0
    2.8692   -2.7787    0.0000 C   0  0  0  0  0  0  0  0  0  0  0  0
    2.1548   -3.1912    0.0000 C   0  0  0  0  0  0  0  0  0  0  0  0
    2.1548   -4.0162    0.0000 C   0  0  0  0  0  0  0  0  0  0  0  0
    2.7587   -0.7162    0.0000 O   0  0  0  0  0  0  0  0  0  0  0  0
  1  2  1  0  0  0  0
  1  3  1  0  0  0  0
  3  4  1  0  0  0  0
  4  5  1  0  0  0  0
  5  6  1  0  0  0  0
  6  7  1  0  0  0  0
  1  8  1  0  0  0  0
  8  9  1  0  0  0  0
  9 10  1  0  0  0  0
 10 11  1  0  0  0  0
 11 12  1  0  0  0  0
  1 13  2  0  0  0  0
M  END
> <ChemID>
100040

> <CAS>
107-66-4

> <Original_SMILES>
CCCCOP(O)(=O)OCCCC

> <preferred_name>
Phosphoric acid, dibutyl ester

> <dsstox_substance_id>
DTXSID3040728

> <dsstox_compound_id>
DTXCID1020728

> <Canonical_QSARr>
CCCCOP(O)(=O)OCCCC

> <InChI_Code_QSARr>
InChI=1S/C8H19O4P/c1-3-5-7-11-13(9,10)12-8-6-4-2/h3-8H2,1-2H3,(H,9,10)

> <InChI Key_QSARr>
JYFHYPJRHGVZDY-UHFFFAOYSA-N

> <Salt_Solvent>


> <Salt_Solvent_ID>
0

> <RT>
3.206

$$$$
Row39
  Mrv171c012261910382D          

 18 19  0  0  0  0            999 V2000
    3.5641   -1.2301    0.0000 C   0  0  0  0  0  0  0  0  0  0  0  0
    4.2785   -0.8176    0.0000 C   0  0  0  0  0  0  0  0  0  0  0  0
    4.2785    0.0074    0.0000 O   0  0  0  0  0  0  0  0  0  0  0  0
    4.9930   -1.2301    0.0000 C   0  0  0  0  0  0  0  0  0  0  0  0
    4.9930   -2.0551    0.0000 C   0  0  0  0  0  0  0  0  0  0  0  0
    5.7075   -2.4676    0.0000 O   0  0  0  0  0  0  0  0  0  0  0  0
    4.2785   -2.4676    0.0000 C   0  0  0  0  0  0  0  0  0  0  0  0
    3.5641   -2.0551    0.0000 C   0  0  0  0  0  0  0  0  0  0  0  0
    2.8496   -0.8176    0.0000 C   0  0  0  0  0  0  0  0  0  0  0  0
    2.1351   -1.2301    0.0000 C   0  0  0  0  0  0  0  0  0  0  0  0
    1.4206   -0.8176    0.0000 C   0  0  0  0  0  0  0  0  0  0  0  0
    0.7062   -1.2301    0.0000 C   0  0  0  0  0  0  0  0  0  0  0  0
    0.7062   -2.0551    0.0000 C   0  0  0  0  0  0  0  0  0  0  0  0
   -0.0083   -2.4676    0.0000 O   0  0  0  0  0  0  0  0  0  0  0  0
    1.4206   -2.4676    0.0000 C   0  0  0  0  0  0  0  0  0  0  0  0
    2.1351   -2.0551    0.0000 C   0  0  0  0  0  0  0  0  0  0  0  0
    2.8496   -2.4676    0.0000 O   0  0  0  0  0  0  0  0  0  0  0  0
    2.8496    0.0074    0.0000 O   0  0  0  0  0  0  0  0  0  0  0  0
  2  1  1  0  0  0  0
  2  3  1  0  0  0  0
  4  2  2  0  0  0  0
  5  4  1  0  0  0  0
  5  6  1  0  0  0  0
  7  5  2  0  0  0  0
  8  7  1  0  0  0  0
  1  8  2  0  0  0  0
  1  9  1  0  0  0  0
  9 10  1  0  0  0  0
 11 10  1  0  0  0  0
 12 11  2  0  0  0  0
 13 12  1  0  0  0  0
 13 14  1  0  0  0  0
 15 13  2  0  0  0  0
 16 15  1  0  0  0  0
 10 16  2  0  0  0  0
 16 17  1  0  0  0  0
  9 18  2  0  0  0  0
M  END
> <ChemID>
100041

> <CAS>
131-55-5

> <Original_SMILES>
Oc1cc(O)c(cc1)C(=O)c1ccc(O)cc1O

> <preferred_name>
2,2',4,4'-Tetrahydroxybenzophenone

> <dsstox_substance_id>
DTXSID5041306

> <dsstox_compound_id>
DTXCID3021306

> <Canonical_QSARr>
OC1C=C(O)C=CC=1C(=O)C1=CC=C(O)C=C1O

> <InChI_Code_QSARr>
InChI=1S/C13H10O5/c14-7-1-3-9(11(16)5-7)13(18)10-4-2-8(15)6-12(10)17/h1-6,14-17H

> <InChI Key_QSARr>
WXNRYSGJLQFHBR-UHFFFAOYSA-N

> <Salt_Solvent>


> <Salt_Solvent_ID>
0

> <RT>
7.863

$$$$
Row40
  Mrv171c012261910382D          

 19 18  0  0  0  0            999 V2000
    9.8694   -1.4755    0.0000 C   0  0  0  0  0  0  0  0  0  0  0  0
   10.5110   -0.9569    0.0000 O   0  0  0  0  0  0  0  0  0  0  0  0
    9.0995   -1.1791    0.0000 C   0  0  0  0  0  0  0  0  0  0  0  0
    8.4578   -1.6978    0.0000 N   0  0  0  0  0  0  0  0  0  0  0  0
    7.6879   -1.4014    0.0000 C   0  0  0  0  0  0  0  0  0  0  0  0
    7.0463   -1.9200    0.0000 C   0  0  0  0  0  0  0  0  0  0  0  0
    6.2764   -1.6237    0.0000 C   0  0  0  0  0  0  0  0  0  0  0  0
    5.6347   -2.1423    0.0000 C   0  0  0  0  0  0  0  0  0  0  0  0
    4.8648   -1.8459    0.0000 C   0  0  0  0  0  0  0  0  0  0  0  0
    4.2232   -2.3645    0.0000 C   0  0  0  0  0  0  0  0  0  0  0  0
    3.4533   -2.0682    0.0000 C   0  0  0  0  0  0  0  0  0  0  0  0
    2.8116   -2.5868    0.0000 C   0  0  0  0  0  0  0  0  0  0  0  0
    2.0417   -2.2905    0.0000 C   0  0  0  0  0  0  0  0  0  0  0  0
    1.4001   -2.8091    0.0000 C   0  0  0  0  0  0  0  0  0  0  0  0
    0.6302   -2.5127    0.0000 C   0  0  0  0  0  0  0  0  0  0  0  0
   -0.0115   -3.0313    0.0000 C   0  0  0  0  0  0  0  0  0  0  0  0
    8.5862   -2.5127    0.0000 C   0  0  0  0  0  0  0  0  0  0  0  0
    9.3561   -2.8091    0.0000 C   0  0  0  0  0  0  0  0  0  0  0  0
    9.4844   -3.6240    0.0000 O   0  0  0  0  0  0  0  0  0  0  0  0
  1  2  1  0  0  0  0
  1  3  1  0  0  0  0
  3  4  1  0  0  0  0
  4  5  1  0  0  0  0
  5  6  1  0  0  0  0
  6  7  1  0  0  0  0
  7  8  1  0  0  0  0
  8  9  1  0  0  0  0
  9 10  1  0  0  0  0
 10 11  1  0  0  0  0
 11 12  1  0  0  0  0
 12 13  1  0  0  0  0
 13 14  1  0  0  0  0
 14 15  1  0  0  0  0
 15 16  1  0  0  0  0
  4 17  1  0  0  0  0
 17 18  1  0  0  0  0
 18 19  1  0  0  0  0
M  END
> <ChemID>
100042

> <CAS>
1541-67-9

> <Original_SMILES>
CCCCCCCCCCCCN(CCO)CCO

> <preferred_name>
Lauryldiethanolamine

> <dsstox_substance_id>
DTXSID4042090

> <dsstox_compound_id>
DTXCID2022090

> <Canonical_QSARr>
CCCCCCCCCCCCN(CCO)CCO

> <InChI_Code_QSARr>
InChI=1S/C16H35NO2/c1-2-3-4-5-6-7-8-9-10-11-12-17(13-15-18)14-16-19/h18-19H,2-16H2,1H3

> <InChI Key_QSARr>
NKFNBVMJTSYZDV-UHFFFAOYSA-N

> <Salt_Solvent>


> <Salt_Solvent_ID>
0

> <RT>
23.435

$$$$
Row41
  Mrv171c012261910382D          

 20 20  0  0  0  0            999 V2000
    2.2263   -1.9125    0.0000 C   0  0  0  0  0  0  0  0  0  0  0  0
    1.5118   -1.5000    0.0000 O   0  0  0  0  0  0  0  0  0  0  0  0
    0.7974   -1.9125    0.0000 C   0  0  0  0  0  0  0  0  0  0  0  0
    0.0829   -1.5000    0.0000 C   0  0  0  0  0  0  0  0  0  0  0  0
   -0.6316   -1.9125    0.0000 O   0  0  0  0  0  0  0  0  0  0  0  0
    0.7974   -2.7375    0.0000 C   0  0  0  0  0  0  0  0  0  0  0  0
    0.0829   -3.1500    0.0000 O   0  0  0  0  0  0  0  0  0  0  0  0
    1.5118   -3.1500    0.0000 C   0  0  0  0  0  0  0  0  0  0  0  0
    1.5118   -3.9750    0.0000 O   0  0  0  0  0  0  0  0  0  0  0  0
    2.2263   -2.7375    0.0000 C   0  0  0  0  0  0  0  0  0  0  0  0
    2.9408   -3.1500    0.0000 O   0  0  0  0  0  0  0  0  0  0  0  0
    2.9408   -1.5000    0.0000 O   0  0  0  0  0  0  0  0  0  0  0  0
    3.6552   -1.9125    0.0000 C   0  0  0  0  0  0  0  0  0  0  0  0
    4.3697   -1.5000    0.0000 C   0  0  0  0  0  0  0  0  0  0  0  0
    5.0842   -1.9125    0.0000 C   0  0  0  0  0  0  0  0  0  0  0  0
    5.7986   -1.5000    0.0000 C   0  0  0  0  0  0  0  0  0  0  0  0
    6.5131   -1.9125    0.0000 C   0  0  0  0  0  0  0  0  0  0  0  0
    7.2276   -1.5000    0.0000 C   0  0  0  0  0  0  0  0  0  0  0  0
    7.9421   -1.9125    0.0000 C   0  0  0  0  0  0  0  0  0  0  0  0
    8.6565   -1.5000    0.0000 C   0  0  0  0  0  0  0  0  0  0  0  0
  2  1  1  0  0  0  0
  3  2  1  0  0  0  0
  3  4  1  0  0  0  0
  4  5  1  0  0  0  0
  6  3  1  0  0  0  0
  6  7  1  0  0  0  0
  8  6  1  0  0  0  0
  8  9  1  0  0  0  0
 10  8  1  0  0  0  0
  1 10  1  0  0  0  0
 10 11  1  0  0  0  0
  1 12  1  0  0  0  0
 12 13  1  0  0  0  0
 13 14  1  0  0  0  0
 14 15  1  0  0  0  0
 15 16  1  0  0  0  0
 16 17  1  0  0  0  0
 17 18  1  0  0  0  0
 18 19  1  0  0  0  0
 19 20  1  0  0  0  0
M  END
> <ChemID>
100043

> <CAS>
29836-26-8

> <Original_SMILES>
CCCCCCCCO[C@@H]1O[C@H](CO)[C@@H](O)[C@H](O)[C@H]1O

> <preferred_name>
Octyl beta-D-glucopyranoside

> <dsstox_substance_id>
DTXSID6042234

> <dsstox_compound_id>
DTXCID4022234

> <Canonical_QSARr>
CCCCCCCCOC1OC(CO)C(O)C(O)C1O

> <InChI_Code_QSARr>
InChI=1S/C14H28O6/c1-2-3-4-5-6-7-8-19-14-13(18)12(17)11(16)10(9-15)20-14/h10-18H,2-9H2,1H3

> <InChI Key_QSARr>
HEGSGKPQLMEBJL-UHFFFAOYSA-N

> <Salt_Solvent>


> <Salt_Solvent_ID>
0

> <RT>
16.4

$$$$
Row42
  Mrv171c012261910382D          

 25 24  0  0  0  0            999 V2000
    2.6151    9.7599    0.0000 C   0  0  0  0  0  0  0  0  0  0  0  0
    2.6151    8.9349    0.0000 C   0  0  0  0  0  0  0  0  0  0  0  0
    3.3296    8.5224    0.0000 C   0  0  0  0  0  0  0  0  0  0  0  0
    3.3296    7.6974    0.0000 C   0  0  0  0  0  0  0  0  0  0  0  0
    4.0441    7.2849    0.0000 C   0  0  0  0  0  0  0  0  0  0  0  0
    4.0441    6.4599    0.0000 C   0  0  0  0  0  0  0  0  0  0  0  0
    4.7586    6.0474    0.0000 C   0  0  0  0  0  0  0  0  0  0  0  0
    4.7586    5.2224    0.0000 C   0  0  0  0  0  0  0  0  0  0  0  0
    5.4730    4.8099    0.0000 C   0  0  0  0  0  0  0  0  0  0  0  0
    5.4730    3.9849    0.0000 C   0  0  0  0  0  0  0  0  0  0  0  0
    6.1875    3.5724    0.0000 C   0  0  0  0  0  0  0  0  0  0  0  0
    6.9020    3.9849    0.0000 C   0  0  0  0  0  0  0  0  0  0  0  0
    7.6164    3.5724    0.0000 C   0  0  0  0  0  0  0  0  0  0  0  0
    8.3309    3.9849    0.0000 C   0  0  0  0  0  0  0  0  0  0  0  0
    9.0454    3.5724    0.0000 C   0  0  0  0  0  0  0  0  0  0  0  0
    9.7599    3.9849    0.0000 C   0  0  0  0  0  0  0  0  0  0  0  0
   10.4743    3.5724    0.0000 C   0  0  0  0  0  0  0  0  0  0  0  0
   11.1888    3.9849    0.0000 C   0  0  0  0  0  0  0  0  0  0  0  0
   11.1888    4.8099    0.0000 O   0  0  0  0  0  0  0  0  0  0  0  0
   11.9033    3.5724    0.0000 N   0  0  0  0  0  0  0  0  0  0  0  0
   11.9033    2.7474    0.0000 C   0  0  0  0  0  0  0  0  0  0  0  0
   12.6177    3.9849    0.0000 C   0  0  0  0  0  0  0  0  0  0  0  0
   13.3322    3.5724    0.0000 C   0  0  0  0  0  0  0  0  0  0  0  0
   14.0467    3.9849    0.0000 O   0  0  0  0  0  0  0  0  0  0  0  0
   13.3322    2.7474    0.0000 O   0  0  0  0  0  0  0  0  0  0  0  0
  1  2  1  0  0  0  0
  2  3  1  0  0  0  0
  3  4  1  0  0  0  0
  4  5  1  0  0  0  0
  5  6  1  0  0  0  0
  6  7  1  0  0  0  0
  7  8  1  0  0  0  0
  9  8  1  4  0  0  0
  9 10  2  0  0  0  0
 10 11  1  0  0  0  0
 11 12  1  0  0  0  0
 12 13  1  0  0  0  0
 13 14  1  0  0  0  0
 14 15  1  0  0  0  0
 15 16  1  0  0  0  0
 16 17  1  0  0  0  0
 17 18  1  0  0  0  0
 18 19  2  0  0  0  0
 18 20  1  0  0  0  0
 20 21  1  0  0  0  0
 20 22  1  0  0  0  0
 22 23  1  0  0  0  0
 23 24  1  0  0  0  0
 23 25  2  0  0  0  0
M  END
> <ChemID>
100044

> <CAS>
110-25-8

> <Original_SMILES>
CCCCCCCC/C=C\CCCCCCCC(=O)N(C)CC(O)=O

> <preferred_name>
Oleyl sarcosine

> <dsstox_substance_id>
DTXSID5042243

> <dsstox_compound_id>
DTXCID3022243

> <Canonical_QSARr>
CCCCCCCCC=CCCCCCCCC(=O)N(C)CC(O)=O

> <InChI_Code_QSARr>
InChI=1S/C21H39NO3/c1-3-4-5-6-7-8-9-10-11-12-13-14-15-16-17-18-20(23)22(2)19-21(24)25/h10-11H,3-9,12-19H2,1-2H3,(H,24,25)

> <InChI Key_QSARr>
DIOYAVUHUXAUPX-UHFFFAOYSA-N

> <Salt_Solvent>


> <Salt_Solvent_ID>
0

> <RT>
26.413

$$$$
Row43
  Mrv171c012261910382D          

 15 16  0  0  0  0            999 V2000
    4.2773   -3.4215    0.0000 N   0  0  0  0  0  0  0  0  0  0  0  0
    3.5628   -3.0090    0.0000 C   0  0  0  0  0  0  0  0  0  0  0  0
    3.5628   -2.1840    0.0000 C   0  0  0  0  0  0  0  0  0  0  0  0
    2.8484   -1.7715    0.0000 C   0  0  0  0  0  0  0  0  0  0  0  0
    2.8484   -0.9465    0.0000 C   0  0  0  0  0  0  0  0  0  0  0  0
    2.1339   -0.5340    0.0000 C   0  0  0  0  0  0  0  0  0  0  0  0
    2.1339    0.2910    0.0000 C   0  0  0  0  0  0  0  0  0  0  0  0
    1.4194    0.7035    0.0000 C   0  0  0  0  0  0  0  0  0  0  0  0
    0.7049    0.2910    0.0000 C   0  0  0  0  0  0  0  0  0  0  0  0
    0.7049   -0.5340    0.0000 C   0  0  0  0  0  0  0  0  0  0  0  0
    1.4194   -0.9465    0.0000 C   0  0  0  0  0  0  0  0  0  0  0  0
    2.8484   -3.4215    0.0000 C   0  0  0  0  0  0  0  0  0  0  0  0
    2.8484   -4.2465    0.0000 C   0  0  0  0  0  0  0  0  0  0  0  0
    3.5628   -4.6590    0.0000 C   0  0  0  0  0  0  0  0  0  0  0  0
    4.2773   -4.2465    0.0000 C   0  0  0  0  0  0  0  0  0  0  0  0
  2  1  1  0  0  0  0
  2  3  1  0  0  0  0
  3  4  1  0  0  0  0
  4  5  1  0  0  0  0
  5  6  1  0  0  0  0
  7  6  1  0  0  0  0
  8  7  2  0  0  0  0
  9  8  1  0  0  0  0
 10  9  2  0  0  0  0
 11 10  1  0  0  0  0
  6 11  2  0  0  0  0
 12  2  2  0  0  0  0
 13 12  1  0  0  0  0
 14 13  2  0  0  0  0
 15 14  1  0  0  0  0
  1 15  2  0  0  0  0
M  END
> <ChemID>
100045

> <CAS>
2110-18-1

> <Original_SMILES>
C(CCc1cccc[n]1)c1ccccc1

> <preferred_name>
2-(3-Phenylpropyl)pyridine

> <dsstox_substance_id>
DTXSID7042356

> <dsstox_compound_id>
DTXCID5022356

> <Canonical_QSARr>
C(CCC1=CC=CC=N1)C1C=CC=CC=1

> <InChI_Code_QSARr>
InChI=1S/C14H15N/c1-2-7-13(8-3-1)9-6-11-14-10-4-5-12-15-14/h1-5,7-8,10,12H,6,9,11H2

> <InChI Key_QSARr>
JJJPNTQYUJPWGQ-UHFFFAOYSA-N

> <Salt_Solvent>


> <Salt_Solvent_ID>
0

> <RT>
19.725

$$$$
Row44
  Mrv171c012261910382D          

 30 35  0  0  0  0            999 V2000
    8.8057   -4.0183    0.0000 C   0  0  0  0  0  0  0  0  0  0  0  0
    8.0073   -3.8104    0.0000 C   0  0  0  0  0  0  0  0  0  0  0  0
    7.7881   -3.0151    0.0000 C   0  0  0  0  0  0  0  0  0  0  0  0
    6.9897   -2.8072    0.0000 N   0  0  0  0  0  0  0  0  0  0  0  0
    6.4105   -3.3947    0.0000 C   0  0  0  0  0  0  0  0  0  0  0  0
    6.6297   -4.1901    0.0000 C   0  0  0  0  0  0  0  0  0  0  0  0
    5.9410   -4.6443    0.0000 O   0  0  0  0  0  0  0  0  0  0  0  0
    5.2962   -4.1297    0.0000 C   0  0  0  0  0  0  0  0  0  0  0  0
    5.5863   -3.3574    0.0000 C   0  0  0  0  0  0  0  0  0  0  0  0
    5.1321   -2.6687    0.0000 C   0  0  0  0  0  0  0  0  0  0  0  0
    4.7087   -3.5505    0.0000 C   0  0  0  0  0  0  0  0  0  0  0  0
    4.6596   -2.7270    0.0000 C   0  0  0  0  0  0  0  0  0  0  0  0
    3.9133   -3.7697    0.0000 C   0  0  0  0  0  0  0  0  0  0  0  0
    3.7055   -4.5681    0.0000 C   0  0  0  0  0  0  0  0  0  0  0  0
    2.8819   -4.6172    0.0000 C   0  0  0  0  0  0  0  0  0  0  0  0
    2.5808   -3.8491    0.0000 C   0  0  0  0  0  0  0  0  0  0  0  0
    3.2182   -3.3253    0.0000 C   0  0  0  0  0  0  0  0  0  0  0  0
    1.7651   -3.7258    0.0000 C   0  0  0  0  0  0  0  0  0  0  0  0
    2.2797   -3.0810    0.0000 C   0  0  0  0  0  0  0  0  0  0  0  0
    1.2505   -4.3707    0.0000 C   0  0  0  0  0  0  0  0  0  0  0  0
    0.4347   -4.2474    0.0000 C   0  0  0  0  0  0  0  0  0  0  0  0
    0.1336   -3.4793    0.0000 C   0  0  0  0  0  0  0  0  0  0  0  0
   -0.6821   -3.3561    0.0000 O   0  0  0  0  0  0  0  0  0  0  0  0
    0.6482   -2.8345    0.0000 C   0  0  0  0  0  0  0  0  0  0  0  0
    1.4639   -2.9578    0.0000 C   0  0  0  0  0  0  0  0  0  0  0  0
    1.5516   -5.1387    0.0000 C   0  0  0  0  0  0  0  0  0  0  0  0
    2.3673   -5.2620    0.0000 C   0  0  0  0  0  0  0  0  0  0  0  0
    4.2930   -5.1473    0.0000 C   0  0  0  0  0  0  0  0  0  0  0  0
    5.0883   -4.9281    0.0000 C   0  0  0  0  0  0  0  0  0  0  0  0
    7.4281   -4.3979    0.0000 C   0  0  0  0  0  0  0  0  0  0  0  0
  1  2  1  0  0  0  0
  3  2  1  0  0  0  0
  4  3  1  0  0  0  0
  5  4  1  0  0  0  0
  5  6  1  0  0  0  0
  6  7  1  0  0  0  0
  7  8  1  0  0  0  0
  8  9  1  0  0  0  0
  9  5  1  0  0  0  0
  9 10  1  0  0  0  0
 11  8  1  0  0  0  0
 11 12  1  0  0  0  0
 13 11  2  0  0  0  0
 13 14  1  0  0  0  0
 14 15  1  0  0  0  0
 16 15  1  0  0  0  0
 16 17  1  0  0  0  0
 17 13  1  0  0  0  0
 18 16  1  0  0  0  0
 18 19  1  0  0  0  0
 18 20  1  0  0  0  0
 20 21  1  0  0  0  0
 21 22  1  0  0  0  0
 22 23  1  0  0  0  0
 22 24  1  0  0  0  0
 24 25  1  0  0  0  0
 25 18  1  0  0  0  0
 26 20  2  0  0  0  0
 27 26  1  0  0  0  0
 15 27  1  0  0  0  0
 28 14  1  0  0  0  0
 29 28  1  0  0  0  0
  8 29  1  0  0  0  0
 30  6  1  0  0  0  0
  2 30  1  0  0  0  0
M  END
> <ChemID>
100046

> <CAS>
4449-51-8

> <Original_SMILES>
C[C@]12CC[C@H](O)CC1=CC[C@@H]1[C@@H]2CC2[C@H]1CC[C@]1(O[C@@H]3C[C@H](C)CN[C@H]3[C@H]1C)C=2C

> <preferred_name>
Cyclopamine

> <dsstox_substance_id>
DTXSID6043709

> <dsstox_compound_id>
DTXCID4023709

> <Canonical_QSARr>
CC12CCC(O)CC1=CCC1C2CC2C1CCC1(OC3CC(C)CNC3C1C)C=2C

> <InChI_Code_QSARr>
InChI=1S/C27H41NO2/c1-15-11-24-25(28-14-15)17(3)27(30-24)10-8-20-21-6-5-18-12-19(29)7-9-26(18,4)23(21)13-22(20)16(27)2/h5,15,17,19-21,23-25,28-29H,6-14H2,1-4H3

> <InChI Key_QSARr>
QASFUMOKHFSJGL-UHFFFAOYSA-N

> <Salt_Solvent>


> <Salt_Solvent_ID>
0

> <RT>
17.775

$$$$
Row45
  Mrv171c012261910382D          

 24 25  0  0  0  0            999 V2000
    2.8754   -1.1893    0.0000 N   0  0  0  0  0  0  0  0  0  0  0  0
    3.1303   -0.4047    0.0000 N   0  0  0  0  0  0  0  0  0  0  0  0
    2.4629    0.0802    0.0000 C   0  0  0  0  0  0  0  0  0  0  0  0
    2.4629    0.9052    0.0000 C   0  0  0  0  0  0  0  0  0  0  0  0
    2.4629    1.7302    0.0000 N   0  0  0  0  0  0  0  0  0  0  0  0
    1.7954   -0.4047    0.0000 C   0  0  0  0  0  0  0  0  0  0  0  0
    1.0108   -0.1498    0.0000 C   0  0  0  0  0  0  0  0  0  0  0  0
    0.2262    0.1052    0.0000 F   0  0  0  0  0  0  0  0  0  0  0  0
    0.7559   -0.9344    0.0000 F   0  0  0  0  0  0  0  0  0  0  0  0
    1.2658    0.6349    0.0000 F   0  0  0  0  0  0  0  0  0  0  0  0
    2.0504   -1.1893    0.0000 C   0  0  0  0  0  0  0  0  0  0  0  0
    1.5655   -1.8568    0.0000 N   0  0  0  0  0  0  0  0  0  0  0  0
    3.3603   -1.8568    0.0000 C   0  0  0  0  0  0  0  0  0  0  0  0
    3.0247   -2.6104    0.0000 C   0  0  0  0  0  0  0  0  0  0  0  0
    2.2043   -2.6967    0.0000 Cl  0  0  0  0  0  0  0  0  0  0  0  0
    3.5097   -3.2779    0.0000 C   0  0  0  0  0  0  0  0  0  0  0  0
    4.3301   -3.1916    0.0000 C   0  0  0  0  0  0  0  0  0  0  0  0
    4.8151   -3.8591    0.0000 C   0  0  0  0  0  0  0  0  0  0  0  0
    5.3000   -4.5265    0.0000 F   0  0  0  0  0  0  0  0  0  0  0  0
    4.1476   -4.3440    0.0000 F   0  0  0  0  0  0  0  0  0  0  0  0
    5.4825   -3.3741    0.0000 F   0  0  0  0  0  0  0  0  0  0  0  0
    4.6657   -2.4380    0.0000 C   0  0  0  0  0  0  0  0  0  0  0  0
    4.1808   -1.7705    0.0000 C   0  0  0  0  0  0  0  0  0  0  0  0
    4.5163   -1.0168    0.0000 Cl  0  0  0  0  0  0  0  0  0  0  0  0
  2  1  1  0  0  0  0
  3  2  2  0  0  0  0
  3  4  1  0  0  0  0
  4  5  3  0  0  0  0
  6  3  1  0  0  0  0
  6  7  1  0  0  0  0
  7  8  1  0  0  0  0
  7  9  1  0  0  0  0
  7 10  1  0  0  0  0
 11  6  2  0  0  0  0
  1 11  1  0  0  0  0
 11 12  1  0  0  0  0
  1 13  1  0  0  0  0
 14 13  1  0  0  0  0
 14 15  1  0  0  0  0
 16 14  2  0  0  0  0
 17 16  1  0  0  0  0
 17 18  1  0  0  0  0
 18 19  1  0  0  0  0
 18 20  1  0  0  0  0
 18 21  1  0  0  0  0
 22 17  2  0  0  0  0
 23 22  1  0  0  0  0
 13 23  2  0  0  0  0
 23 24  1  0  0  0  0
M  END
> <ChemID>
100047

> <CAS>
205650-65-3

> <Original_SMILES>
Nc1c(c(C#N)[n][n]1-c1c(Cl)cc(cc1Cl)C(F)(F)F)C(F)(F)F

> <preferred_name>
Fipronil-desulfinyl

> <dsstox_substance_id>
DTXSID0043719

> <dsstox_compound_id>
DTXCID8023719

> <Canonical_QSARr>
NC1=C(C(C#N)=NN1C1C(Cl)=CC(=CC=1Cl)C(F)(F)F)C(F)(F)F

> <InChI_Code_QSARr>
InChI=1S/C12H4Cl2F6N4/c13-5-1-4(11(15,16)17)2-6(14)9(5)24-10(22)8(12(18,19)20)7(3-21)23-24/h1-2H,22H2

> <InChI Key_QSARr>
JWKXVHLIRTVXLD-UHFFFAOYSA-N

> <Salt_Solvent>


> <Salt_Solvent_ID>
0

> <RT>
22.05

$$$$
Row46
  Mrv171c012261910382D          

 23 25  0  0  0  0            999 V2000
    5.7435   -2.6853    0.0000 C   0  0  0  0  0  0  0  0  0  0  0  0
    5.0291   -2.2728    0.0000 C   0  0  0  0  0  0  0  0  0  0  0  0
    4.3146   -2.6853    0.0000 C   0  0  0  0  0  0  0  0  0  0  0  0
    3.6001   -2.2728    0.0000 C   0  0  0  0  0  0  0  0  0  0  0  0
    2.8857   -2.6853    0.0000 N   0  0  0  0  0  0  0  0  0  0  0  0
    2.1712   -2.2728    0.0000 C   0  0  0  0  0  0  0  0  0  0  0  0
    2.1712   -1.4478    0.0000 C   0  0  0  0  0  0  0  0  0  0  0  0
    1.4567   -1.0353    0.0000 C   0  0  0  0  0  0  0  0  0  0  0  0
    1.4567   -0.2103    0.0000 N   0  3  0  0  0  0  0  0  0  0  0  0
    0.7422    0.2022    0.0000 O   0  0  0  0  0  0  0  0  0  0  0  0
    2.1712    0.2022    0.0000 O   0  5  0  0  0  0  0  0  0  0  0  0
    0.7422   -1.4478    0.0000 C   0  0  0  0  0  0  0  0  0  0  0  0
    0.7422   -2.2728    0.0000 C   0  0  0  0  0  0  0  0  0  0  0  0
    1.4567   -2.6853    0.0000 C   0  0  0  0  0  0  0  0  0  0  0  0
    3.6001   -1.4478    0.0000 O   0  0  0  0  0  0  0  0  0  0  0  0
    4.3146   -3.5103    0.0000 C   0  0  0  0  0  0  0  0  0  0  0  0
    3.6001   -3.9228    0.0000 O   0  0  0  0  0  0  0  0  0  0  0  0
    5.0291   -3.9228    0.0000 C   0  0  0  0  0  0  0  0  0  0  0  0
    5.7435   -3.5103    0.0000 C   0  0  0  0  0  0  0  0  0  0  0  0
    6.4580   -3.9228    0.0000 C   0  0  0  0  0  0  0  0  0  0  0  0
    7.1725   -3.5103    0.0000 C   0  0  0  0  0  0  0  0  0  0  0  0
    7.1725   -2.6853    0.0000 C   0  0  0  0  0  0  0  0  0  0  0  0
    6.4580   -2.2728    0.0000 C   0  0  0  0  0  0  0  0  0  0  0  0
  2  1  1  0  0  0  0
  3  2  2  0  0  0  0
  3  4  1  0  0  0  0
  4  5  1  0  0  0  0
  5  6  1  0  0  0  0
  7  6  1  0  0  0  0
  8  7  2  0  0  0  0
  8  9  1  0  0  0  0
  9 10  2  0  0  0  0
  9 11  1  0  0  0  0
 12  8  1  0  0  0  0
 13 12  2  0  0  0  0
 14 13  1  0  0  0  0
  6 14  2  0  0  0  0
  4 15  2  0  0  0  0
 16  3  1  0  0  0  0
 16 17  1  0  0  0  0
 18 16  2  0  0  0  0
 19 18  1  0  0  0  0
 19  1  2  0  0  0  0
 20 19  1  0  0  0  0
 21 20  2  0  0  0  0
 22 21  1  0  0  0  0
 23 22  2  0  0  0  0
  1 23  1  0  0  0  0
M  CHG  2   9   1  11  -1
M  END
> <ChemID>
100048

> <CAS>
135-65-9

> <Original_SMILES>
[O-][N+](=O)c1cc(ccc1)NC(=O)c1cc2ccccc2cc1O

> <preferred_name>
3-Hydroxy-N-(3-nitrophenyl)naphthalene-2-carboxamide

> <dsstox_substance_id>
DTXSID3044544

> <dsstox_compound_id>
DTXCID1024544

> <Canonical_QSARr>
[O-][N+](=O)C1=CC(=CC=C1)NC(=O)C1=CC2C=CC=CC=2C=C1O

> <InChI_Code_QSARr>
InChI=1S/C17H12N2O4/c20-16-9-12-5-2-1-4-11(12)8-15(16)17(21)18-13-6-3-7-14(10-13)19(22)23/h1-10,20H,(H,18,21)

> <InChI Key_QSARr>
YZJSKRBKHCLMQC-UHFFFAOYSA-N

> <Salt_Solvent>


> <Salt_Solvent_ID>
0

> <RT>
21.027

$$$$
Row47
  Mrv171c012261910382D          

 13 13  0  0  0  0            999 V2000
    1.3929   -1.5472    0.0000 C   0  0  0  0  0  0  0  0  0  0  0  0
    2.1074   -1.1347    0.0000 S   0  0  0  0  0  0  0  0  0  0  0  0
    2.8219   -0.7222    0.0000 O   0  0  0  0  0  0  0  0  0  0  0  0
    1.6949   -0.4202    0.0000 O   0  0  0  0  0  0  0  0  0  0  0  0
    2.5199   -1.8491    0.0000 O   0  0  0  0  0  0  0  0  0  0  0  0
    0.6785   -1.1347    0.0000 C   0  0  0  0  0  0  0  0  0  0  0  0
    0.6785   -0.3097    0.0000 Cl  0  0  0  0  0  0  0  0  0  0  0  0
   -0.0360   -1.5472    0.0000 C   0  0  0  0  0  0  0  0  0  0  0  0
   -0.0360   -2.3722    0.0000 C   0  0  0  0  0  0  0  0  0  0  0  0
   -0.7505   -2.7847    0.0000 Cl  0  0  0  0  0  0  0  0  0  0  0  0
    0.6785   -2.7847    0.0000 C   0  0  0  0  0  0  0  0  0  0  0  0
    0.6785   -3.6097    0.0000 Cl  0  0  0  0  0  0  0  0  0  0  0  0
    1.3929   -2.3722    0.0000 C   0  0  0  0  0  0  0  0  0  0  0  0
  1  2  1  0  0  0  0
  2  3  2  0  0  0  0
  2  4  1  0  0  0  0
  2  5  2  0  0  0  0
  6  1  1  0  0  0  0
  6  7  1  0  0  0  0
  8  6  2  0  0  0  0
  9  8  1  0  0  0  0
  9 10  1  0  0  0  0
 11  9  2  0  0  0  0
 11 12  1  0  0  0  0
 13 11  1  0  0  0  0
  1 13  2  0  0  0  0
M  END
> <ChemID>
100049

> <CAS>
6378-25-2

> <Original_SMILES>
OS(=O)(=O)c1cc(Cl)c(Cl)cc1Cl

> <preferred_name>
2,4,5-Trichlorobenzenesulfonic acid

> <dsstox_substance_id>
DTXSID2045072

> <dsstox_compound_id>
DTXCID0025072

> <Canonical_QSARr>
OS(=O)(=O)C1=CC(Cl)=C(Cl)C=C1Cl

> <InChI_Code_QSARr>
InChI=1S/C6H3Cl3O3S/c7-3-1-5(9)6(2-4(3)8)13(10,11)12/h1-2H,(H,10,11,12)

> <InChI Key_QSARr>
LEDKKDPOPIKMSZ-UHFFFAOYSA-N

> <Salt_Solvent>


> <Salt_Solvent_ID>
0

> <RT>
2.045

$$$$
Row48
  Mrv171c012261910382D          

 34 33  0  0  0  0            999 V2000
   -0.0849   -4.2463    0.0000 C   0  0  0  0  0  0  0  0  0  0  0  0
   -0.7994   -4.6588    0.0000 O   0  0  0  0  0  0  0  0  0  0  0  0
    0.6295   -4.6588    0.0000 O   0  0  0  0  0  0  0  0  0  0  0  0
   -0.0849   -3.4213    0.0000 C   0  0  0  0  0  0  0  0  0  0  0  0
    0.7401   -3.4213    0.0000 F   0  0  0  0  0  0  0  0  0  0  0  0
   -0.9099   -3.4213    0.0000 F   0  0  0  0  0  0  0  0  0  0  0  0
   -0.0849   -2.5963    0.0000 C   0  0  0  0  0  0  0  0  0  0  0  0
    0.7401   -2.5963    0.0000 F   0  0  0  0  0  0  0  0  0  0  0  0
   -0.9099   -2.5963    0.0000 F   0  0  0  0  0  0  0  0  0  0  0  0
   -0.0849   -1.7713    0.0000 C   0  0  0  0  0  0  0  0  0  0  0  0
    0.7401   -1.7713    0.0000 F   0  0  0  0  0  0  0  0  0  0  0  0
   -0.9099   -1.7713    0.0000 F   0  0  0  0  0  0  0  0  0  0  0  0
   -0.0849   -0.9463    0.0000 C   0  0  0  0  0  0  0  0  0  0  0  0
    0.7401   -0.9463    0.0000 F   0  0  0  0  0  0  0  0  0  0  0  0
   -0.9099   -0.9463    0.0000 F   0  0  0  0  0  0  0  0  0  0  0  0
   -0.0849   -0.1213    0.0000 C   0  0  0  0  0  0  0  0  0  0  0  0
    0.7401   -0.1213    0.0000 F   0  0  0  0  0  0  0  0  0  0  0  0
   -0.9099   -0.1213    0.0000 F   0  0  0  0  0  0  0  0  0  0  0  0
   -0.0849    0.7037    0.0000 C   0  0  0  0  0  0  0  0  0  0  0  0
    0.7401    0.7037    0.0000 F   0  0  0  0  0  0  0  0  0  0  0  0
   -0.9099    0.7037    0.0000 F   0  0  0  0  0  0  0  0  0  0  0  0
   -0.0849    1.5287    0.0000 C   0  0  0  0  0  0  0  0  0  0  0  0
    0.7401    1.5287    0.0000 F   0  0  0  0  0  0  0  0  0  0  0  0
   -0.9099    1.5287    0.0000 F   0  0  0  0  0  0  0  0  0  0  0  0
   -0.0849    2.3537    0.0000 C   0  0  0  0  0  0  0  0  0  0  0  0
    0.7401    2.3537    0.0000 F   0  0  0  0  0  0  0  0  0  0  0  0
   -0.9099    2.3537    0.0000 F   0  0  0  0  0  0  0  0  0  0  0  0
   -0.0849    3.1787    0.0000 C   0  0  0  0  0  0  0  0  0  0  0  0
    0.7401    3.1787    0.0000 F   0  0  0  0  0  0  0  0  0  0  0  0
   -0.9099    3.1787    0.0000 F   0  0  0  0  0  0  0  0  0  0  0  0
   -0.0849    4.0037    0.0000 C   0  0  0  0  0  0  0  0  0  0  0  0
   -0.0849    4.8287    0.0000 F   0  0  0  0  0  0  0  0  0  0  0  0
    0.7401    4.0037    0.0000 F   0  0  0  0  0  0  0  0  0  0  0  0
   -0.9099    4.0037    0.0000 F   0  0  0  0  0  0  0  0  0  0  0  0
  1  2  2  0  0  0  0
  1  3  1  0  0  0  0
  1  4  1  0  0  0  0
  4  5  1  0  0  0  0
  4  6  1  0  0  0  0
  4  7  1  0  0  0  0
  7  8  1  0  0  0  0
  7  9  1  0  0  0  0
  7 10  1  0  0  0  0
 10 11  1  0  0  0  0
 10 12  1  0  0  0  0
 10 13  1  0  0  0  0
 13 14  1  0  0  0  0
 13 15  1  0  0  0  0
 13 16  1  0  0  0  0
 16 17  1  0  0  0  0
 16 18  1  0  0  0  0
 16 19  1  0  0  0  0
 19 20  1  0  0  0  0
 19 21  1  0  0  0  0
 19 22  1  0  0  0  0
 22 23  1  0  0  0  0
 22 24  1  0  0  0  0
 22 25  1  0  0  0  0
 25 26  1  0  0  0  0
 25 27  1  0  0  0  0
 25 28  1  0  0  0  0
 28 29  1  0  0  0  0
 28 30  1  0  0  0  0
 28 31  1  0  0  0  0
 31 32  1  0  0  0  0
 31 33  1  0  0  0  0
 31 34  1  0  0  0  0
M  END
> <ChemID>
100050

> <CAS>
2058-94-8

> <Original_SMILES>
OC(=O)C(F)(F)C(F)(F)C(F)(F)C(F)(F)C(F)(F)C(F)(F)C(F)(F)C(F)(F)C(F)(F)C(F)(F)F

> <preferred_name>
Perfluoroundecanoic acid

> <dsstox_substance_id>
DTXSID8047553

> <dsstox_compound_id>
DTXCID6027553

> <Canonical_QSARr>
OC(=O)C(F)(F)C(F)(F)C(F)(F)C(F)(F)C(F)(F)C(F)(F)C(F)(F)C(F)(F)C(F)(F)C(F)(F)F

> <InChI_Code_QSARr>
InChI=1S/C11HF21O2/c12-2(13,1(33)34)3(14,15)4(16,17)5(18,19)6(20,21)7(22,23)8(24,25)9(26,27)10(28,29)11(30,31)32/h(H,33,34)

> <InChI Key_QSARr>
SIDINRCMMRKXGQ-UHFFFAOYSA-N

> <Salt_Solvent>


> <Salt_Solvent_ID>
0

> <RT>
22.75

$$$$
Row49
  Mrv171c012261910382D          

 17 18  0  0  0  0            999 V2000
    2.9578   -0.8316    0.0000 P   0  0  0  0  0  0  0  0  0  0  0  0
    2.5453   -0.1172    0.0000 O   0  0  0  0  0  0  0  0  0  0  0  0
    2.2433   -1.2441    0.0000 O   0  0  0  0  0  0  0  0  0  0  0  0
    2.2433   -2.0691    0.0000 C   0  0  0  0  0  0  0  0  0  0  0  0
    1.5289   -2.4816    0.0000 C   0  0  0  0  0  0  0  0  0  0  0  0
    1.5289   -3.3066    0.0000 C   0  0  0  0  0  0  0  0  0  0  0  0
    2.2433   -3.7191    0.0000 C   0  0  0  0  0  0  0  0  0  0  0  0
    2.9578   -3.3066    0.0000 C   0  0  0  0  0  0  0  0  0  0  0  0
    2.9578   -2.4816    0.0000 C   0  0  0  0  0  0  0  0  0  0  0  0
    3.6723   -0.4191    0.0000 O   0  0  0  0  0  0  0  0  0  0  0  0
    3.6723    0.4059    0.0000 C   0  0  0  0  0  0  0  0  0  0  0  0
    4.3867    0.8184    0.0000 C   0  0  0  0  0  0  0  0  0  0  0  0
    4.3867    1.6434    0.0000 C   0  0  0  0  0  0  0  0  0  0  0  0
    3.6723    2.0559    0.0000 C   0  0  0  0  0  0  0  0  0  0  0  0
    2.9578    1.6434    0.0000 C   0  0  0  0  0  0  0  0  0  0  0  0
    2.9578    0.8184    0.0000 C   0  0  0  0  0  0  0  0  0  0  0  0
    3.3703   -1.5461    0.0000 O   0  0  0  0  0  0  0  0  0  0  0  0
  1  2  1  0  0  0  0
  1  3  1  0  0  0  0
  3  4  1  0  0  0  0
  5  4  1  0  0  0  0
  6  5  2  0  0  0  0
  7  6  1  0  0  0  0
  8  7  2  0  0  0  0
  9  8  1  0  0  0  0
  4  9  2  0  0  0  0
  1 10  1  0  0  0  0
 10 11  1  0  0  0  0
 12 11  1  0  0  0  0
 13 12  2  0  0  0  0
 14 13  1  0  0  0  0
 15 14  2  0  0  0  0
 16 15  1  0  0  0  0
 11 16  2  0  0  0  0
  1 17  2  0  0  0  0
M  END
> <ChemID>
100051

> <CAS>
838-85-7

> <Original_SMILES>
OP(=O)(Oc1ccccc1)Oc1ccccc1

> <preferred_name>
Diphenyl phosphate

> <dsstox_substance_id>
DTXSID1048207

> <dsstox_compound_id>
DTXCID3028182

> <Canonical_QSARr>
OP(=O)(OC1C=CC=CC=1)OC1C=CC=CC=1

> <InChI_Code_QSARr>
InChI=1S/C12H11O4P/c13-17(14,15-11-7-3-1-4-8-11)16-12-9-5-2-6-10-12/h1-10H,(H,13,14)

> <InChI Key_QSARr>
ASMQGLCHMVWBQR-UHFFFAOYSA-N

> <Salt_Solvent>


> <Salt_Solvent_ID>
0

> <RT>
2.326

$$$$
Row50
  Mrv171c012261910382D          

 13 12  0  0  0  0            999 V2000
    0.9837   -0.0425    0.0000 C   0  0  0  0  0  0  0  0  0  0  0  0
    0.2692    0.3700    0.0000 F   0  0  0  0  0  0  0  0  0  0  0  0
    1.6981   -0.4550    0.0000 F   0  0  0  0  0  0  0  0  0  0  0  0
    1.3962    0.6720    0.0000 C   0  0  0  0  0  0  0  0  0  0  0  0
    1.8087    1.3864    0.0000 F   0  0  0  0  0  0  0  0  0  0  0  0
    0.6817    1.0845    0.0000 F   0  0  0  0  0  0  0  0  0  0  0  0
    2.1106    0.2595    0.0000 F   0  0  0  0  0  0  0  0  0  0  0  0
    0.5712   -0.7570    0.0000 C   0  0  0  0  0  0  0  0  0  0  0  0
   -0.1433   -0.3445    0.0000 F   0  0  0  0  0  0  0  0  0  0  0  0
    1.2856   -1.1695    0.0000 F   0  0  0  0  0  0  0  0  0  0  0  0
    0.1587   -1.4715    0.0000 C   0  0  0  0  0  0  0  0  0  0  0  0
    0.5712   -2.1859    0.0000 O   0  0  0  0  0  0  0  0  0  0  0  0
   -0.6663   -1.4715    0.0000 O   0  0  0  0  0  0  0  0  0  0  0  0
  1  2  1  0  0  0  0
  1  3  1  0  0  0  0
  1  4  1  0  0  0  0
  4  5  1  0  0  0  0
  4  6  1  0  0  0  0
  4  7  1  0  0  0  0
  1  8  1  0  0  0  0
  8  9  1  0  0  0  0
  8 10  1  0  0  0  0
  8 11  1  0  0  0  0
 11 12  2  0  0  0  0
 11 13  1  0  0  0  0
M  END
> <ChemID>
100052

> <CAS>
375-22-4

> <Original_SMILES>
OC(=O)C(F)(F)C(F)(F)C(F)(F)F

> <preferred_name>
Perfluorobutanoic acid

> <dsstox_substance_id>
DTXSID4059916

> <dsstox_compound_id>
DTXCID1039343

> <Canonical_QSARr>
OC(=O)C(F)(F)C(F)(F)C(F)(F)F

> <InChI_Code_QSARr>
InChI=1S/C4HF7O2/c5-2(6,1(12)13)3(7,8)4(9,10)11/h(H,12,13)

> <InChI Key_QSARr>
YPJUNDFVDDCYIH-UHFFFAOYSA-N

> <Salt_Solvent>


> <Salt_Solvent_ID>
0

> <RT>
1.38

$$$$
Row51
  Mrv171c012261910382D          

 16 15  0  0  0  0            999 V2000
    0.3609    0.6859    0.0000 O   0  0  0  0  0  0  0  0  0  0  0  0
   -0.0516   -0.0286    0.0000 C   0  0  0  0  0  0  0  0  0  0  0  0
    0.3609   -0.7431    0.0000 C   0  0  0  0  0  0  0  0  0  0  0  0
    0.7734   -1.4576    0.0000 C   0  0  0  0  0  0  0  0  0  0  0  0
    1.1859   -2.1720    0.0000 C   0  0  0  0  0  0  0  0  0  0  0  0
    1.5984   -2.8865    0.0000 C   0  0  0  0  0  0  0  0  0  0  0  0
    2.0109   -3.6010    0.0000 F   0  0  0  0  0  0  0  0  0  0  0  0
    0.8840   -3.2990    0.0000 F   0  0  0  0  0  0  0  0  0  0  0  0
    2.3129   -2.4740    0.0000 F   0  0  0  0  0  0  0  0  0  0  0  0
    0.4715   -2.5845    0.0000 F   0  0  0  0  0  0  0  0  0  0  0  0
    1.9004   -1.7595    0.0000 F   0  0  0  0  0  0  0  0  0  0  0  0
    0.0590   -1.8701    0.0000 F   0  0  0  0  0  0  0  0  0  0  0  0
    1.4879   -1.0451    0.0000 F   0  0  0  0  0  0  0  0  0  0  0  0
   -0.3535   -1.1556    0.0000 F   0  0  0  0  0  0  0  0  0  0  0  0
    1.0754   -0.3306    0.0000 F   0  0  0  0  0  0  0  0  0  0  0  0
   -0.8766   -0.0286    0.0000 O   0  0  0  0  0  0  0  0  0  0  0  0
  1  2  2  0  0  0  0
  2  3  1  0  0  0  0
  3  4  1  0  0  0  0
  4  5  1  0  0  0  0
  5  6  1  0  0  0  0
  6  7  1  0  0  0  0
  6  8  1  0  0  0  0
  6  9  1  0  0  0  0
  5 10  1  0  0  0  0
  5 11  1  0  0  0  0
  4 12  1  0  0  0  0
  4 13  1  0  0  0  0
  3 14  1  0  0  0  0
  3 15  1  0  0  0  0
  2 16  1  0  0  0  0
M  END
> <ChemID>
100053

> <CAS>
2706-90-3

> <Original_SMILES>
OC(=O)C(F)(F)C(F)(F)C(F)(F)C(F)(F)F

> <preferred_name>
Perfluoropentanoic acid

> <dsstox_substance_id>
DTXSID6062599

> <dsstox_compound_id>
DTXCID9037612

> <Canonical_QSARr>
OC(=O)C(F)(F)C(F)(F)C(F)(F)C(F)(F)F

> <InChI_Code_QSARr>
InChI=1S/C5HF9O2/c6-2(7,1(15)16)3(8,9)4(10,11)5(12,13)14/h(H,15,16)

> <InChI Key_QSARr>
CXZGQIAOTKWCDB-UHFFFAOYSA-N

> <Salt_Solvent>


> <Salt_Solvent_ID>
0

> <RT>
2.25

$$$$
Row52
  Mrv171c012261910382D          

 59 58  0  0  0  0            999 V2000
   10.2239    0.0000    0.0000 P   0  0  0  0  0  0  0  0  0  0  0  0
   10.6364   -0.7145    0.0000 O   0  0  0  0  0  0  0  0  0  0  0  0
    9.8114    0.7145    0.0000 O   0  0  0  0  0  0  0  0  0  0  0  0
    9.5094   -0.4125    0.0000 O   0  0  0  0  0  0  0  0  0  0  0  0
    9.5094   -1.2375    0.0000 C   0  0  0  0  0  0  0  0  0  0  0  0
    8.7950   -1.6500    0.0000 C   0  0  0  0  0  0  0  0  0  0  0  0
    8.7950   -2.4750    0.0000 C   0  0  0  0  0  0  0  0  0  0  0  0
    8.7950   -3.3000    0.0000 C   0  0  0  0  0  0  0  0  0  0  0  0
    8.7950   -4.1250    0.0000 C   0  0  0  0  0  0  0  0  0  0  0  0
    8.7950   -4.9500    0.0000 C   0  0  0  0  0  0  0  0  0  0  0  0
    8.7950   -5.7750    0.0000 C   0  0  0  0  0  0  0  0  0  0  0  0
    8.7950   -6.6000    0.0000 C   0  0  0  0  0  0  0  0  0  0  0  0
    8.7950   -7.4250    0.0000 C   0  0  0  0  0  0  0  0  0  0  0  0
    8.7950   -8.2500    0.0000 C   0  0  0  0  0  0  0  0  0  0  0  0
    8.7950   -9.0750    0.0000 F   0  0  0  0  0  0  0  0  0  0  0  0
    9.6200   -8.2500    0.0000 F   0  0  0  0  0  0  0  0  0  0  0  0
    7.9700   -8.2500    0.0000 F   0  0  0  0  0  0  0  0  0  0  0  0
    9.6200   -7.4250    0.0000 F   0  0  0  0  0  0  0  0  0  0  0  0
    7.9700   -7.4250    0.0000 F   0  0  0  0  0  0  0  0  0  0  0  0
    9.6200   -6.6000    0.0000 F   0  0  0  0  0  0  0  0  0  0  0  0
    7.9700   -6.6000    0.0000 F   0  0  0  0  0  0  0  0  0  0  0  0
    9.6200   -5.7750    0.0000 F   0  0  0  0  0  0  0  0  0  0  0  0
    7.9700   -5.7750    0.0000 F   0  0  0  0  0  0  0  0  0  0  0  0
    9.6200   -4.9500    0.0000 F   0  0  0  0  0  0  0  0  0  0  0  0
    7.9700   -4.9500    0.0000 F   0  0  0  0  0  0  0  0  0  0  0  0
    9.6200   -4.1250    0.0000 F   0  0  0  0  0  0  0  0  0  0  0  0
    7.9700   -4.1250    0.0000 F   0  0  0  0  0  0  0  0  0  0  0  0
    9.6200   -3.3000    0.0000 F   0  0  0  0  0  0  0  0  0  0  0  0
    7.9700   -3.3000    0.0000 F   0  0  0  0  0  0  0  0  0  0  0  0
    9.6200   -2.4750    0.0000 F   0  0  0  0  0  0  0  0  0  0  0  0
    7.9700   -2.4750    0.0000 F   0  0  0  0  0  0  0  0  0  0  0  0
   10.9384    0.4125    0.0000 O   0  0  0  0  0  0  0  0  0  0  0  0
   10.9384    1.2375    0.0000 C   0  0  0  0  0  0  0  0  0  0  0  0
   11.6528    1.6500    0.0000 C   0  0  0  0  0  0  0  0  0  0  0  0
   11.6528    2.4750    0.0000 C   0  0  0  0  0  0  0  0  0  0  0  0
   11.6528    3.3000    0.0000 C   0  0  0  0  0  0  0  0  0  0  0  0
   11.6528    4.1250    0.0000 C   0  0  0  0  0  0  0  0  0  0  0  0
   11.6528    4.9500    0.0000 C   0  0  0  0  0  0  0  0  0  0  0  0
   11.6528    5.7750    0.0000 C   0  0  0  0  0  0  0  0  0  0  0  0
   11.6528    6.6000    0.0000 C   0  0  0  0  0  0  0  0  0  0  0  0
   11.6528    7.4250    0.0000 C   0  0  0  0  0  0  0  0  0  0  0  0
   11.6528    8.2500    0.0000 C   0  0  0  0  0  0  0  0  0  0  0  0
   11.6528    9.0750    0.0000 F   0  0  0  0  0  0  0  0  0  0  0  0
   12.4778    8.2500    0.0000 F   0  0  0  0  0  0  0  0  0  0  0  0
   10.8278    8.2500    0.0000 F   0  0  0  0  0  0  0  0  0  0  0  0
   12.4778    7.4250    0.0000 F   0  0  0  0  0  0  0  0  0  0  0  0
   10.8278    7.4250    0.0000 F   0  0  0  0  0  0  0  0  0  0  0  0
   12.4778    6.6000    0.0000 F   0  0  0  0  0  0  0  0  0  0  0  0
   10.8278    6.6000    0.0000 F   0  0  0  0  0  0  0  0  0  0  0  0
   12.4778    5.7750    0.0000 F   0  0  0  0  0  0  0  0  0  0  0  0
   10.8278    5.7750    0.0000 F   0  0  0  0  0  0  0  0  0  0  0  0
   12.4778    4.9500    0.0000 F   0  0  0  0  0  0  0  0  0  0  0  0
   10.8278    4.9500    0.0000 F   0  0  0  0  0  0  0  0  0  0  0  0
   12.4778    4.1250    0.0000 F   0  0  0  0  0  0  0  0  0  0  0  0
   10.8278    4.1250    0.0000 F   0  0  0  0  0  0  0  0  0  0  0  0
   12.4778    3.3000    0.0000 F   0  0  0  0  0  0  0  0  0  0  0  0
   10.8278    3.3000    0.0000 F   0  0  0  0  0  0  0  0  0  0  0  0
   12.4778    2.4750    0.0000 F   0  0  0  0  0  0  0  0  0  0  0  0
   10.8278    2.4750    0.0000 F   0  0  0  0  0  0  0  0  0  0  0  0
  1  2  2  0  0  0  0
  1  3  1  0  0  0  0
  1  4  1  0  0  0  0
  4  5  1  0  0  0  0
  5  6  1  0  0  0  0
  6  7  1  0  0  0  0
  7  8  1  0  0  0  0
  8  9  1  0  0  0  0
  9 10  1  0  0  0  0
 10 11  1  0  0  0  0
 11 12  1  0  0  0  0
 12 13  1  0  0  0  0
 13 14  1  0  0  0  0
 14 15  1  0  0  0  0
 14 16  1  0  0  0  0
 14 17  1  0  0  0  0
 13 18  1  0  0  0  0
 13 19  1  0  0  0  0
 12 20  1  0  0  0  0
 12 21  1  0  0  0  0
 11 22  1  0  0  0  0
 11 23  1  0  0  0  0
 10 24  1  0  0  0  0
 10 25  1  0  0  0  0
  9 26  1  0  0  0  0
  9 27  1  0  0  0  0
  8 28  1  0  0  0  0
  8 29  1  0  0  0  0
  7 30  1  0  0  0  0
  7 31  1  0  0  0  0
  1 32  1  0  0  0  0
 32 33  1  0  0  0  0
 33 34  1  0  0  0  0
 34 35  1  0  0  0  0
 35 36  1  0  0  0  0
 36 37  1  0  0  0  0
 37 38  1  0  0  0  0
 38 39  1  0  0  0  0
 39 40  1  0  0  0  0
 40 41  1  0  0  0  0
 41 42  1  0  0  0  0
 42 43  1  0  0  0  0
 42 44  1  0  0  0  0
 42 45  1  0  0  0  0
 41 46  1  0  0  0  0
 41 47  1  0  0  0  0
 40 48  1  0  0  0  0
 40 49  1  0  0  0  0
 39 50  1  0  0  0  0
 39 51  1  0  0  0  0
 38 52  1  0  0  0  0
 38 53  1  0  0  0  0
 37 54  1  0  0  0  0
 37 55  1  0  0  0  0
 36 56  1  0  0  0  0
 36 57  1  0  0  0  0
 35 58  1  0  0  0  0
 35 59  1  0  0  0  0
M  END
> <ChemID>
100054

> <CAS>
678-41-1

> <Original_SMILES>
OP(=O)(OCCC(F)(F)C(F)(F)C(F)(F)C(F)(F)C(F)(F)C(F)(F)C(F)(F)C(F)(F)F)OCCC(F)(F)C(F)(F)C(F)(F)C(F)(F)C(F)(F)C(F)(F)C(F)(F)C(F)(F)F

> <preferred_name>
8:2 Fluorotelomer phosphate diester

> <dsstox_substance_id>
DTXSID90218051

> <dsstox_compound_id>
DTXCID10140542

> <Canonical_QSARr>
OP(=O)(OCCC(F)(F)C(F)(F)C(F)(F)C(F)(F)C(F)(F)C(F)(F)C(F)(F)C(F)(F)F)OCCC(F)(F)C(F)(F)C(F)(F)C(F)(F)C(F)(F)C(F)(F)C(F)(F)C(F)(F)F

> <InChI_Code_QSARr>
InChI=1S/C20H9F34O4P/c21-5(22,7(25,26)9(29,30)11(33,34)13(37,38)15(41,42)17(45,46)19(49,50)51)1-3-57-59(55,56)58-4-2-6(23,24)8(27,28)10(31,32)12(35,36)14(39,40)16(43,44)18(47,48)20(52,53)54/h1-4H2,(H,55,56)

> <InChI Key_QSARr>
AFWOYEYXUDHGHF-UHFFFAOYSA-N

> <Salt_Solvent>


> <Salt_Solvent_ID>
0

> <RT>
31.16

$$$$
Row53
  Mrv171c001122012332D          

 47 46  0  0  0  0            999 V2000
   -3.4615    0.1484    0.0000 O   0  0  0  0  0  0  0  0  0  0  0  0
   -4.2865    0.1484    0.0000 P   0  0  0  0  0  0  0  0  0  0  0  0
   -4.2865    0.9734    0.0000 O   0  0  0  0  0  0  0  0  0  0  0  0
   -5.0010    1.3859    0.0000 C   0  0  0  0  0  0  0  0  0  0  0  0
   -5.0010    2.2109    0.0000 C   0  0  0  0  0  0  0  0  0  0  0  0
   -5.7155    2.6234    0.0000 C   0  0  0  0  0  0  0  0  0  0  0  0
   -6.1280    1.9090    0.0000 F   0  0  0  0  0  0  0  0  0  0  0  0
   -5.3030    3.3379    0.0000 F   0  0  0  0  0  0  0  0  0  0  0  0
   -6.4299    3.0359    0.0000 C   0  0  0  0  0  0  0  0  0  0  0  0
   -6.8424    2.3215    0.0000 F   0  0  0  0  0  0  0  0  0  0  0  0
   -6.0174    3.7504    0.0000 F   0  0  0  0  0  0  0  0  0  0  0  0
   -7.1444    3.4484    0.0000 C   0  0  0  0  0  0  0  0  0  0  0  0
   -7.5569    2.7340    0.0000 F   0  0  0  0  0  0  0  0  0  0  0  0
   -6.7319    4.1629    0.0000 F   0  0  0  0  0  0  0  0  0  0  0  0
   -7.8589    3.8609    0.0000 C   0  0  0  0  0  0  0  0  0  0  0  0
   -8.2714    3.1465    0.0000 F   0  0  0  0  0  0  0  0  0  0  0  0
   -7.4464    4.5754    0.0000 F   0  0  0  0  0  0  0  0  0  0  0  0
   -8.5734    4.2734    0.0000 C   0  0  0  0  0  0  0  0  0  0  0  0
   -8.9859    3.5590    0.0000 F   0  0  0  0  0  0  0  0  0  0  0  0
   -8.1609    4.9879    0.0000 F   0  0  0  0  0  0  0  0  0  0  0  0
   -9.2878    4.6859    0.0000 C   0  0  0  0  0  0  0  0  0  0  0  0
  -10.0023    5.0984    0.0000 F   0  0  0  0  0  0  0  0  0  0  0  0
   -9.7003    3.9715    0.0000 F   0  0  0  0  0  0  0  0  0  0  0  0
   -8.8753    5.4004    0.0000 F   0  0  0  0  0  0  0  0  0  0  0  0
   -4.2865   -0.6766    0.0000 O   0  0  0  0  0  0  0  0  0  0  0  0
   -3.5721   -1.0891    0.0000 C   0  0  0  0  0  0  0  0  0  0  0  0
   -3.5721   -1.9141    0.0000 C   0  0  0  0  0  0  0  0  0  0  0  0
   -2.8576   -2.3266    0.0000 C   0  0  0  0  0  0  0  0  0  0  0  0
   -3.2701   -3.0410    0.0000 F   0  0  0  0  0  0  0  0  0  0  0  0
   -2.4451   -1.6121    0.0000 F   0  0  0  0  0  0  0  0  0  0  0  0
   -2.1431   -2.7391    0.0000 C   0  0  0  0  0  0  0  0  0  0  0  0
   -2.5556   -3.4535    0.0000 F   0  0  0  0  0  0  0  0  0  0  0  0
   -1.7306   -2.0246    0.0000 F   0  0  0  0  0  0  0  0  0  0  0  0
   -1.4286   -3.1516    0.0000 C   0  0  0  0  0  0  0  0  0  0  0  0
   -1.8411   -3.8660    0.0000 F   0  0  0  0  0  0  0  0  0  0  0  0
   -1.0161   -2.4371    0.0000 F   0  0  0  0  0  0  0  0  0  0  0  0
   -0.7142   -3.5641    0.0000 C   0  0  0  0  0  0  0  0  0  0  0  0
   -1.1267   -4.2785    0.0000 F   0  0  0  0  0  0  0  0  0  0  0  0
   -0.3017   -2.8496    0.0000 F   0  0  0  0  0  0  0  0  0  0  0  0
    0.0003   -3.9766    0.0000 C   0  0  0  0  0  0  0  0  0  0  0  0
   -0.4122   -4.6910    0.0000 F   0  0  0  0  0  0  0  0  0  0  0  0
    0.4128   -3.2621    0.0000 F   0  0  0  0  0  0  0  0  0  0  0  0
    0.7148   -4.3891    0.0000 C   0  0  0  0  0  0  0  0  0  0  0  0
    1.4292   -4.8016    0.0000 F   0  0  0  0  0  0  0  0  0  0  0  0
    0.3023   -5.1035    0.0000 F   0  0  0  0  0  0  0  0  0  0  0  0
    1.1273   -3.6746    0.0000 F   0  0  0  0  0  0  0  0  0  0  0  0
   -5.1115    0.1484    0.0000 O   0  0  0  0  0  0  0  0  0  0  0  0
  1  2  1  0  0  0  0
  2  3  1  0  0  0  0
  3  4  1  0  0  0  0
  4  5  1  0  0  0  0
  5  6  1  0  0  0  0
  6  7  1  0  0  0  0
  6  8  1  0  0  0  0
  6  9  1  0  0  0  0
  9 10  1  0  0  0  0
  9 11  1  0  0  0  0
  9 12  1  0  0  0  0
 12 13  1  0  0  0  0
 12 14  1  0  0  0  0
 12 15  1  0  0  0  0
 15 16  1  0  0  0  0
 15 17  1  0  0  0  0
 15 18  1  0  0  0  0
 18 19  1  0  0  0  0
 18 20  1  0  0  0  0
 18 21  1  0  0  0  0
 21 22  1  0  0  0  0
 21 23  1  0  0  0  0
 21 24  1  0  0  0  0
  2 25  1  0  0  0  0
 25 26  1  0  0  0  0
 26 27  1  0  0  0  0
 27 28  1  0  0  0  0
 28 29  1  0  0  0  0
 28 30  1  0  0  0  0
 28 31  1  0  0  0  0
 31 32  1  0  0  0  0
 31 33  1  0  0  0  0
 31 34  1  0  0  0  0
 34 35  1  0  0  0  0
 34 36  1  0  0  0  0
 34 37  1  0  0  0  0
 37 38  1  0  0  0  0
 37 39  1  0  0  0  0
 37 40  1  0  0  0  0
 40 41  1  0  0  0  0
 40 42  1  0  0  0  0
 40 43  1  0  0  0  0
 43 44  1  0  0  0  0
 43 45  1  0  0  0  0
 43 46  1  0  0  0  0
  2 47  2  0  0  0  0
M  END
> <ChemID>
100055

> <CAS>
667465-18-1

> <Original_SMILES>
[O-]P(=O)(OCCC(F)(F)C(F)(F)C(F)(F)C(F)(F)C(F)(F)C(F)(F)F)OCCC(F)(F)C(F)(F)C(F)(F)C(F)(F)C(F)(F)C(F)(F)F

> <preferred_name>
Bis(3,3,4,4,5,5,6,6,7,7,8,8,8-tridecafluorooctyl) phosphate ion(1-)

> <dsstox_substance_id>
DTXSID70873425

> <dsstox_compound_id>
DTXCID001011713

> <Canonical_QSARr>
OP(=O)(OCCC(F)(F)C(F)(F)C(F)(F)C(F)(F)C(F)(F)C(F)(F)F)OCCC(F)(F)C(F)(F)C(F)(F)C(F)(F)C(F)(F)C(F)(F)F

> <InChI_Code_QSARr>
InChI=1S/C16H9F26O4P/c17-5(18,7(21,22)9(25,26)11(29,30)13(33,34)15(37,38)39)1-3-45-47(43,44)46-4-2-6(19,20)8(23,24)10(27,28)12(31,32)14(35,36)16(40,41)42/h1-4H2,(H,43,44)

> <InChI Key_QSARr>
ZDYYWMSLMLTXDM-UHFFFAOYSA-N

> <Salt_Solvent>


> <Salt_Solvent_ID>
0

> <RT>
27.64

$$$$
Row54
  Mrv171c012261910382D          

 65 64  0  0  0  0            999 V2000
    6.9745   -4.7243    0.0000 F   0  0  0  0  0  0  0  0  0  0  0  0
    6.5620   -5.4388    0.0000 C   0  0  0  0  0  0  0  0  0  0  0  0
    6.1495   -6.1533    0.0000 F   0  0  0  0  0  0  0  0  0  0  0  0
    7.2765   -5.8513    0.0000 C   0  0  0  0  0  0  0  0  0  0  0  0
    7.9910   -6.2638    0.0000 F   0  0  0  0  0  0  0  0  0  0  0  0
    7.6890   -5.1368    0.0000 F   0  0  0  0  0  0  0  0  0  0  0  0
    6.8640   -6.5658    0.0000 F   0  0  0  0  0  0  0  0  0  0  0  0
    5.8476   -5.0263    0.0000 C   0  0  0  0  0  0  0  0  0  0  0  0
    6.2601   -4.3118    0.0000 F   0  0  0  0  0  0  0  0  0  0  0  0
    5.4351   -5.7408    0.0000 F   0  0  0  0  0  0  0  0  0  0  0  0
    5.1331   -4.6138    0.0000 C   0  0  0  0  0  0  0  0  0  0  0  0
    5.5456   -3.8993    0.0000 F   0  0  0  0  0  0  0  0  0  0  0  0
    4.7206   -5.3283    0.0000 F   0  0  0  0  0  0  0  0  0  0  0  0
    4.4186   -4.2013    0.0000 C   0  0  0  0  0  0  0  0  0  0  0  0
    4.8311   -3.4868    0.0000 F   0  0  0  0  0  0  0  0  0  0  0  0
    4.0061   -4.9158    0.0000 F   0  0  0  0  0  0  0  0  0  0  0  0
    3.7041   -3.7888    0.0000 C   0  0  0  0  0  0  0  0  0  0  0  0
    4.1166   -3.0743    0.0000 F   0  0  0  0  0  0  0  0  0  0  0  0
    3.2916   -4.5033    0.0000 F   0  0  0  0  0  0  0  0  0  0  0  0
    2.9897   -3.3763    0.0000 C   0  0  0  0  0  0  0  0  0  0  0  0
    3.4022   -2.6618    0.0000 F   0  0  0  0  0  0  0  0  0  0  0  0
    2.5772   -4.0908    0.0000 F   0  0  0  0  0  0  0  0  0  0  0  0
    2.2752   -2.9638    0.0000 C   0  0  0  0  0  0  0  0  0  0  0  0
    2.6877   -2.2493    0.0000 F   0  0  0  0  0  0  0  0  0  0  0  0
    1.8627   -3.6783    0.0000 F   0  0  0  0  0  0  0  0  0  0  0  0
    1.5607   -2.5513    0.0000 C   0  0  0  0  0  0  0  0  0  0  0  0
    1.5607   -1.7263    0.0000 C   0  0  0  0  0  0  0  0  0  0  0  0
    0.8463   -1.3138    0.0000 O   0  0  0  0  0  0  0  0  0  0  0  0
    0.8463   -0.4888    0.0000 P   0  0  0  0  0  0  0  0  0  0  0  0
    0.8463    0.3362    0.0000 O   0  0  0  0  0  0  0  0  0  0  0  0
    0.1318    0.7487    0.0000 C   0  0  0  0  0  0  0  0  0  0  0  0
    0.1318    1.5737    0.0000 C   0  0  0  0  0  0  0  0  0  0  0  0
   -0.5827    1.9862    0.0000 C   0  0  0  0  0  0  0  0  0  0  0  0
   -0.1702    2.7007    0.0000 F   0  0  0  0  0  0  0  0  0  0  0  0
   -0.9952    1.2717    0.0000 F   0  0  0  0  0  0  0  0  0  0  0  0
   -1.2972    2.3987    0.0000 C   0  0  0  0  0  0  0  0  0  0  0  0
   -0.8847    3.1132    0.0000 F   0  0  0  0  0  0  0  0  0  0  0  0
   -1.7097    1.6842    0.0000 F   0  0  0  0  0  0  0  0  0  0  0  0
   -2.0116    2.8112    0.0000 C   0  0  0  0  0  0  0  0  0  0  0  0
   -1.5991    3.5257    0.0000 F   0  0  0  0  0  0  0  0  0  0  0  0
   -2.4241    2.0967    0.0000 F   0  0  0  0  0  0  0  0  0  0  0  0
   -2.7261    3.2237    0.0000 C   0  0  0  0  0  0  0  0  0  0  0  0
   -2.3136    3.9382    0.0000 F   0  0  0  0  0  0  0  0  0  0  0  0
   -3.1386    2.5092    0.0000 F   0  0  0  0  0  0  0  0  0  0  0  0
   -3.4406    3.6362    0.0000 C   0  0  0  0  0  0  0  0  0  0  0  0
   -3.0281    4.3507    0.0000 F   0  0  0  0  0  0  0  0  0  0  0  0
   -3.8531    2.9217    0.0000 F   0  0  0  0  0  0  0  0  0  0  0  0
   -4.1550    4.0487    0.0000 C   0  0  0  0  0  0  0  0  0  0  0  0
   -4.8695    4.4612    0.0000 C   0  0  0  0  0  0  0  0  0  0  0  0
   -4.4570    5.1757    0.0000 F   0  0  0  0  0  0  0  0  0  0  0  0
   -5.2820    3.7467    0.0000 F   0  0  0  0  0  0  0  0  0  0  0  0
   -5.5840    4.8737    0.0000 C   0  0  0  0  0  0  0  0  0  0  0  0
   -5.1715    5.5882    0.0000 F   0  0  0  0  0  0  0  0  0  0  0  0
   -5.9965    4.1592    0.0000 F   0  0  0  0  0  0  0  0  0  0  0  0
   -6.2985    5.2862    0.0000 C   0  0  0  0  0  0  0  0  0  0  0  0
   -5.8860    6.0007    0.0000 F   0  0  0  0  0  0  0  0  0  0  0  0
   -6.7110    4.5717    0.0000 F   0  0  0  0  0  0  0  0  0  0  0  0
   -7.0129    5.6987    0.0000 C   0  0  0  0  0  0  0  0  0  0  0  0
   -7.7274    6.1112    0.0000 F   0  0  0  0  0  0  0  0  0  0  0  0
   -6.6004    6.4132    0.0000 F   0  0  0  0  0  0  0  0  0  0  0  0
   -7.4254    4.9842    0.0000 F   0  0  0  0  0  0  0  0  0  0  0  0
   -3.7425    4.7632    0.0000 F   0  0  0  0  0  0  0  0  0  0  0  0
   -4.5675    3.3342    0.0000 F   0  0  0  0  0  0  0  0  0  0  0  0
    1.6713   -0.4888    0.0000 O   0  0  0  0  0  0  0  0  0  0  0  0
    0.0213   -0.4888    0.0000 O   0  0  0  0  0  0  0  0  0  0  0  0
  1  2  1  0  0  0  0
  2  3  1  0  0  0  0
  2  4  1  0  0  0  0
  4  5  1  0  0  0  0
  4  6  1  0  0  0  0
  4  7  1  0  0  0  0
  2  8  1  0  0  0  0
  8  9  1  0  0  0  0
  8 10  1  0  0  0  0
  8 11  1  0  0  0  0
 11 12  1  0  0  0  0
 11 13  1  0  0  0  0
 11 14  1  0  0  0  0
 14 15  1  0  0  0  0
 14 16  1  0  0  0  0
 14 17  1  0  0  0  0
 17 18  1  0  0  0  0
 17 19  1  0  0  0  0
 17 20  1  0  0  0  0
 20 21  1  0  0  0  0
 20 22  1  0  0  0  0
 20 23  1  0  0  0  0
 23 24  1  0  0  0  0
 23 25  1  0  0  0  0
 23 26  1  0  0  0  0
 26 27  1  0  0  0  0
 27 28  1  0  0  0  0
 28 29  1  0  0  0  0
 29 30  1  0  0  0  0
 30 31  1  0  0  0  0
 31 32  1  0  0  0  0
 32 33  1  0  0  0  0
 33 34  1  0  0  0  0
 33 35  1  0  0  0  0
 33 36  1  0  0  0  0
 36 37  1  0  0  0  0
 36 38  1  0  0  0  0
 36 39  1  0  0  0  0
 39 40  1  0  0  0  0
 39 41  1  0  0  0  0
 39 42  1  0  0  0  0
 42 43  1  0  0  0  0
 42 44  1  0  0  0  0
 42 45  1  0  0  0  0
 45 46  1  0  0  0  0
 45 47  1  0  0  0  0
 45 48  1  0  0  0  0
 48 49  1  0  0  0  0
 49 50  1  0  0  0  0
 49 51  1  0  0  0  0
 49 52  1  0  0  0  0
 52 53  1  0  0  0  0
 52 54  1  0  0  0  0
 52 55  1  0  0  0  0
 55 56  1  0  0  0  0
 55 57  1  0  0  0  0
 55 58  1  0  0  0  0
 58 59  1  0  0  0  0
 58 60  1  0  0  0  0
 58 61  1  0  0  0  0
 48 62  1  0  0  0  0
 48 63  1  0  0  0  0
 29 64  1  0  0  0  0
 29 65  2  0  0  0  0
M  END
> <ChemID>
100056

> <CAS>
1158182-60-5

> <Original_SMILES>
OP(=O)(OCCC(F)(F)C(F)(F)C(F)(F)C(F)(F)C(F)(F)C(F)(F)C(F)(F)C(F)(F)C(F)(F)C(F)(F)F)OCCC(F)(F)C(F)(F)C(F)(F)C(F)(F)C(F)(F)C(F)(F)C(F)(F)C(F)(F)F

> <preferred_name>
3,3,4,4,5,5,6,6,7,7,8,8,9,9,10,10,11,11,12,12,12-Henicosafluorododecyl 3,3,4,4,5,5,6,6,7,7,8,8,9,9,10,10,10-heptadecafluorodecyl hydrogen phosphate

> <dsstox_substance_id>
DTXSID60873414

> <dsstox_compound_id>
DTXCID801011705

> <Canonical_QSARr>
OP(=O)(OCCC(F)(F)C(F)(F)C(F)(F)C(F)(F)C(F)(F)C(F)(F)C(F)(F)C(F)(F)C(F)(F)C(F)(F)F)OCCC(F)(F)C(F)(F)C(F)(F)C(F)(F)C(F)(F)C(F)(F)C(F)(F)C(F)(F)F

> <InChI_Code_QSARr>
InChI=1S/C22H9F38O4P/c23-5(24,7(27,28)9(31,32)11(35,36)13(39,40)14(41,42)16(45,46)18(49,50)20(53,54)22(58,59)60)1-3-63-65(61,62)64-4-2-6(25,26)8(29,30)10(33,34)12(37,38)15(43,44)17(47,48)19(51,52)21(55,56)57/h1-4H2,(H,61,62)

> <InChI Key_QSARr>
BBDDRBGAFBSXRZ-UHFFFAOYSA-N

> <Salt_Solvent>


> <Salt_Solvent_ID>
0

> <RT>
32.65

$$$$
Row55
  Mrv171c012261910382D          

 25 26  0  0  0  0            999 V2000
    1.9208    2.1703    0.0000 C   0  0  0  0  0  0  0  0  0  0  0  0
    1.7493    1.3633    0.0000 S   0  0  0  0  0  0  0  0  0  0  0  0
    0.9647    1.1084    0.0000 C   0  0  0  0  0  0  0  0  0  0  0  0
    0.2972    1.5933    0.0000 C   0  0  0  0  0  0  0  0  0  0  0  0
    0.2972    2.4183    0.0000 C   0  0  0  0  0  0  0  0  0  0  0  0
    0.2972    3.2433    0.0000 N   0  0  0  0  0  0  0  0  0  0  0  0
   -0.3702    1.1084    0.0000 N   0  0  0  0  0  0  0  0  0  0  0  0
   -0.1153    0.3238    0.0000 N   0  0  0  0  0  0  0  0  0  0  0  0
   -0.6002   -0.3437    0.0000 C   0  0  0  0  0  0  0  0  0  0  0  0
   -1.4207   -0.2574    0.0000 C   0  0  0  0  0  0  0  0  0  0  0  0
   -1.7562    0.4962    0.0000 Cl  0  0  0  0  0  0  0  0  0  0  0  0
   -1.9056   -0.9249    0.0000 C   0  0  0  0  0  0  0  0  0  0  0  0
   -1.5700   -1.6785    0.0000 C   0  0  0  0  0  0  0  0  0  0  0  0
   -2.0549   -2.3460    0.0000 C   0  0  0  0  0  0  0  0  0  0  0  0
   -2.5399   -3.0134    0.0000 F   0  0  0  0  0  0  0  0  0  0  0  0
   -1.3875   -2.8309    0.0000 F   0  0  0  0  0  0  0  0  0  0  0  0
   -2.7224   -1.8611    0.0000 F   0  0  0  0  0  0  0  0  0  0  0  0
   -0.7495   -1.7648    0.0000 C   0  0  0  0  0  0  0  0  0  0  0  0
   -0.2646   -1.0973    0.0000 C   0  0  0  0  0  0  0  0  0  0  0  0
    0.5559   -1.1836    0.0000 Cl  0  0  0  0  0  0  0  0  0  0  0  0
    0.7097    0.3238    0.0000 C   0  0  0  0  0  0  0  0  0  0  0  0
    1.1947   -0.3437    0.0000 N   0  0  0  0  0  0  0  0  0  0  0  0
    2.0924    2.9773    0.0000 F   0  0  0  0  0  0  0  0  0  0  0  0
    2.7278    1.9988    0.0000 F   0  0  0  0  0  0  0  0  0  0  0  0
    1.1139    2.3418    0.0000 F   0  0  0  0  0  0  0  0  0  0  0  0
  1  2  1  0  0  0  0
  2  3  1  0  0  0  0
  4  3  1  0  0  0  0
  4  5  1  0  0  0  0
  5  6  3  0  0  0  0
  7  4  2  0  0  0  0
  8  7  1  0  0  0  0
  8  9  1  0  0  0  0
 10  9  1  0  0  0  0
 10 11  1  0  0  0  0
 12 10  2  0  0  0  0
 13 12  1  0  0  0  0
 13 14  1  0  0  0  0
 14 15  1  0  0  0  0
 14 16  1  0  0  0  0
 14 17  1  0  0  0  0
 18 13  2  0  0  0  0
 19 18  1  0  0  0  0
  9 19  2  0  0  0  0
 19 20  1  0  0  0  0
 21  8  1  0  0  0  0
  3 21  2  0  0  0  0
 21 22  1  0  0  0  0
  1 23  1  0  0  0  0
  1 24  1  0  0  0  0
  1 25  1  0  0  0  0
M  END
> <ChemID>
100057

> <CAS>
120067-83-6

> <Original_SMILES>
Nc1c(SC(F)(F)F)c(C#N)[n][n]1-c1c(Cl)cc(cc1Cl)C(F)(F)F

> <preferred_name>
Fipronil sulfide

> <dsstox_substance_id>
DTXSID50869644

> <dsstox_compound_id>
DTXCID40817598

> <Canonical_QSARr>
NC1=C(SC(F)(F)F)C(C#N)=NN1C1C(Cl)=CC(=CC=1Cl)C(F)(F)F

> <InChI_Code_QSARr>
InChI=1S/C12H4Cl2F6N4S/c13-5-1-4(11(15,16)17)2-6(14)8(5)24-10(22)9(7(3-21)23-24)25-12(18,19)20/h1-2H,22H2

> <InChI Key_QSARr>
FQXWEKADCSXYOC-UHFFFAOYSA-N

> <Salt_Solvent>


> <Salt_Solvent_ID>
0

> <RT>
23.26

$$$$
Row56
  Mrv171c012261910382D          

 27 28  0  0  0  0            999 V2000
    2.2216    0.8581    0.0000 O   0  0  0  0  0  0  0  0  0  0  0  0
    1.6085    1.4101    0.0000 S   0  0  0  0  0  0  0  0  0  0  0  0
    1.7800    2.2171    0.0000 C   0  0  0  0  0  0  0  0  0  0  0  0
    1.9515    3.0241    0.0000 F   0  0  0  0  0  0  0  0  0  0  0  0
    0.9730    2.3886    0.0000 F   0  0  0  0  0  0  0  0  0  0  0  0
    2.5870    2.0456    0.0000 F   0  0  0  0  0  0  0  0  0  0  0  0
    0.8238    1.1552    0.0000 C   0  0  0  0  0  0  0  0  0  0  0  0
    0.1564    1.6401    0.0000 C   0  0  0  0  0  0  0  0  0  0  0  0
    0.1564    2.4651    0.0000 C   0  0  0  0  0  0  0  0  0  0  0  0
   -0.5581    2.8776    0.0000 O   0  0  0  0  0  0  0  0  0  0  0  0
    0.8709    2.8776    0.0000 N   0  0  0  0  0  0  0  0  0  0  0  0
   -0.5110    1.1552    0.0000 N   0  0  0  0  0  0  0  0  0  0  0  0
   -0.2561    0.3706    0.0000 N   0  0  0  0  0  0  0  0  0  0  0  0
   -0.7410   -0.2969    0.0000 C   0  0  0  0  0  0  0  0  0  0  0  0
   -1.5615   -0.2106    0.0000 C   0  0  0  0  0  0  0  0  0  0  0  0
   -1.8971    0.5431    0.0000 Cl  0  0  0  0  0  0  0  0  0  0  0  0
   -2.0464   -0.8781    0.0000 C   0  0  0  0  0  0  0  0  0  0  0  0
   -1.7109   -1.6317    0.0000 C   0  0  0  0  0  0  0  0  0  0  0  0
   -2.1958   -2.2992    0.0000 C   0  0  0  0  0  0  0  0  0  0  0  0
   -2.6807   -2.9666    0.0000 F   0  0  0  0  0  0  0  0  0  0  0  0
   -2.8632   -1.8143    0.0000 F   0  0  0  0  0  0  0  0  0  0  0  0
   -1.5284   -2.7841    0.0000 F   0  0  0  0  0  0  0  0  0  0  0  0
   -0.8904   -1.7180    0.0000 C   0  0  0  0  0  0  0  0  0  0  0  0
   -0.4055   -1.0505    0.0000 C   0  0  0  0  0  0  0  0  0  0  0  0
    0.4150   -1.1368    0.0000 Cl  0  0  0  0  0  0  0  0  0  0  0  0
    0.5689    0.3706    0.0000 C   0  0  0  0  0  0  0  0  0  0  0  0
    1.0538   -0.2969    0.0000 N   0  0  0  0  0  0  0  0  0  0  0  0
  1  2  2  0  0  0  0
  2  3  1  0  0  0  0
  3  4  1  0  0  0  0
  3  5  1  0  0  0  0
  3  6  1  0  0  0  0
  2  7  1  0  0  0  0
  8  7  1  0  0  0  0
  8  9  1  0  0  0  0
  9 10  2  0  0  0  0
  9 11  1  0  0  0  0
 12  8  2  0  0  0  0
 13 12  1  0  0  0  0
 13 14  1  0  0  0  0
 15 14  1  0  0  0  0
 15 16  1  0  0  0  0
 17 15  2  0  0  0  0
 18 17  1  0  0  0  0
 18 19  1  0  0  0  0
 19 20  1  0  0  0  0
 19 21  1  0  0  0  0
 19 22  1  0  0  0  0
 23 18  2  0  0  0  0
 24 23  1  0  0  0  0
 14 24  2  0  0  0  0
 24 25  1  0  0  0  0
 26 13  1  0  0  0  0
  7 26  2  0  0  0  0
 26 27  1  0  0  0  0
M  END
> <ChemID>
100058

> <CAS>
205650-69-7

> <Original_SMILES>
NC(=O)c1[n][n](-c2c(Cl)cc(cc2Cl)C(F)(F)F)c(N)c1S(=O)C(F)(F)F

> <preferred_name>
Fipronil amide

> <dsstox_substance_id>
DTXSID60873419

> <dsstox_compound_id>
DTXCID901011710

> <Canonical_QSARr>
NC(=O)C1=NN(C2C(Cl)=CC(=CC=2Cl)C(F)(F)F)C(N)=C1S(=O)C(F)(F)F

> <InChI_Code_QSARr>
InChI=1S/C12H6Cl2F6N4O2S/c13-4-1-3(11(15,16)17)2-5(14)7(4)24-9(21)8(6(23-24)10(22)25)27(26)12(18,19)20/h1-2H,21H2,(H2,22,25)

> <InChI Key_QSARr>
OPPWTDFHAFPGOT-UHFFFAOYSA-N

> <Salt_Solvent>


> <Salt_Solvent_ID>
0

> <RT>
17.01

$$$$
Row57
  Mrv171c001122012332D          

 25 24  0  0  0  0            999 V2000
   -0.9717   -3.8890    0.0000 O   0  0  0  0  0  0  0  0  0  0  0  0
   -0.9717   -3.0640    0.0000 S   0  0  0  0  0  0  0  0  0  0  0  0
   -0.9717   -2.2390    0.0000 C   0  0  0  0  0  0  0  0  0  0  0  0
   -0.2572   -1.8265    0.0000 C   0  0  0  0  0  0  0  0  0  0  0  0
   -0.2572   -1.0015    0.0000 C   0  0  0  0  0  0  0  0  0  0  0  0
    0.5678   -1.0015    0.0000 F   0  0  0  0  0  0  0  0  0  0  0  0
   -1.0822   -1.0015    0.0000 F   0  0  0  0  0  0  0  0  0  0  0  0
   -0.2572   -0.1765    0.0000 C   0  0  0  0  0  0  0  0  0  0  0  0
    0.5678   -0.1765    0.0000 F   0  0  0  0  0  0  0  0  0  0  0  0
   -1.0822   -0.1765    0.0000 F   0  0  0  0  0  0  0  0  0  0  0  0
   -0.2572    0.6485    0.0000 C   0  0  0  0  0  0  0  0  0  0  0  0
    0.5678    0.6485    0.0000 F   0  0  0  0  0  0  0  0  0  0  0  0
   -1.0822    0.6485    0.0000 F   0  0  0  0  0  0  0  0  0  0  0  0
   -0.2572    1.4735    0.0000 C   0  0  0  0  0  0  0  0  0  0  0  0
    0.5678    1.4735    0.0000 F   0  0  0  0  0  0  0  0  0  0  0  0
   -1.0822    1.4735    0.0000 F   0  0  0  0  0  0  0  0  0  0  0  0
   -0.2572    2.2985    0.0000 C   0  0  0  0  0  0  0  0  0  0  0  0
    0.5678    2.2985    0.0000 F   0  0  0  0  0  0  0  0  0  0  0  0
   -1.0822    2.2985    0.0000 F   0  0  0  0  0  0  0  0  0  0  0  0
   -0.2572    3.1235    0.0000 C   0  0  0  0  0  0  0  0  0  0  0  0
   -0.2572    3.9485    0.0000 F   0  0  0  0  0  0  0  0  0  0  0  0
    0.5678    3.1235    0.0000 F   0  0  0  0  0  0  0  0  0  0  0  0
   -1.0822    3.1235    0.0000 F   0  0  0  0  0  0  0  0  0  0  0  0
   -0.1467   -3.0640    0.0000 O   0  0  0  0  0  0  0  0  0  0  0  0
   -1.7967   -3.0640    0.0000 O   0  0  0  0  0  0  0  0  0  0  0  0
  1  2  1  0  0  0  0
  2  3  1  0  0  0  0
  3  4  1  0  0  0  0
  4  5  1  0  0  0  0
  5  6  1  0  0  0  0
  5  7  1  0  0  0  0
  5  8  1  0  0  0  0
  8  9  1  0  0  0  0
  8 10  1  0  0  0  0
  8 11  1  0  0  0  0
 11 12  1  0  0  0  0
 11 13  1  0  0  0  0
 11 14  1  0  0  0  0
 14 15  1  0  0  0  0
 14 16  1  0  0  0  0
 14 17  1  0  0  0  0
 17 18  1  0  0  0  0
 17 19  1  0  0  0  0
 17 20  1  0  0  0  0
 20 21  1  0  0  0  0
 20 22  1  0  0  0  0
 20 23  1  0  0  0  0
  2 24  2  0  0  0  0
  2 25  2  0  0  0  0
M  END
> <ChemID>
100059

> <CAS>
425670-75-3

> <Original_SMILES>
[O-]S(=O)(=O)CCC(F)(F)C(F)(F)C(F)(F)C(F)(F)C(F)(F)C(F)(F)F

> <preferred_name>
6:2 Fluorotelomer sulfonate

> <dsstox_substance_id>
DTXSID40873417

> <dsstox_compound_id>
DTXCID901011708

> <Canonical_QSARr>
OS(=O)(=O)CCC(F)(F)C(F)(F)C(F)(F)C(F)(F)C(F)(F)C(F)(F)F

> <InChI_Code_QSARr>
InChI=1S/C8H5F13O3S/c9-3(10,1-2-25(22,23)24)4(11,12)5(13,14)6(15,16)7(17,18)8(19,20)21/h1-2H2,(H,22,23,24)

> <InChI Key_QSARr>
VIONGDJUYAYOPU-UHFFFAOYSA-N

> <Salt_Solvent>


> <Salt_Solvent_ID>
0

> <RT>
15.96

$$$$
Row58
  Mrv171c001122012332D          

 31 30  0  0  0  0            999 V2000
   -0.9680   -4.7944    0.0000 O   0  0  0  0  0  0  0  0  0  0  0  0
   -0.9680   -3.9694    0.0000 S   0  0  0  0  0  0  0  0  0  0  0  0
   -0.9680   -3.1444    0.0000 C   0  0  0  0  0  0  0  0  0  0  0  0
   -0.2535   -2.7319    0.0000 C   0  0  0  0  0  0  0  0  0  0  0  0
   -0.2535   -1.9069    0.0000 C   0  0  0  0  0  0  0  0  0  0  0  0
    0.5715   -1.9069    0.0000 F   0  0  0  0  0  0  0  0  0  0  0  0
   -1.0785   -1.9069    0.0000 F   0  0  0  0  0  0  0  0  0  0  0  0
   -0.2535   -1.0819    0.0000 C   0  0  0  0  0  0  0  0  0  0  0  0
    0.5715   -1.0819    0.0000 F   0  0  0  0  0  0  0  0  0  0  0  0
   -1.0785   -1.0819    0.0000 F   0  0  0  0  0  0  0  0  0  0  0  0
   -0.2535   -0.2569    0.0000 C   0  0  0  0  0  0  0  0  0  0  0  0
    0.5715   -0.2569    0.0000 F   0  0  0  0  0  0  0  0  0  0  0  0
   -1.0785   -0.2569    0.0000 F   0  0  0  0  0  0  0  0  0  0  0  0
   -0.2535    0.5681    0.0000 C   0  0  0  0  0  0  0  0  0  0  0  0
    0.5715    0.5681    0.0000 F   0  0  0  0  0  0  0  0  0  0  0  0
   -1.0785    0.5681    0.0000 F   0  0  0  0  0  0  0  0  0  0  0  0
   -0.2535    1.3931    0.0000 C   0  0  0  0  0  0  0  0  0  0  0  0
    0.5715    1.3931    0.0000 F   0  0  0  0  0  0  0  0  0  0  0  0
   -1.0785    1.3931    0.0000 F   0  0  0  0  0  0  0  0  0  0  0  0
   -0.2535    2.2181    0.0000 C   0  0  0  0  0  0  0  0  0  0  0  0
    0.5715    2.2181    0.0000 F   0  0  0  0  0  0  0  0  0  0  0  0
   -1.0785    2.2181    0.0000 F   0  0  0  0  0  0  0  0  0  0  0  0
   -0.2535    3.0431    0.0000 C   0  0  0  0  0  0  0  0  0  0  0  0
    0.5715    3.0431    0.0000 F   0  0  0  0  0  0  0  0  0  0  0  0
   -0.2535    3.8681    0.0000 C   0  0  0  0  0  0  0  0  0  0  0  0
   -0.2535    4.6931    0.0000 F   0  0  0  0  0  0  0  0  0  0  0  0
    0.5715    3.8681    0.0000 F   0  0  0  0  0  0  0  0  0  0  0  0
   -1.0785    3.8681    0.0000 F   0  0  0  0  0  0  0  0  0  0  0  0
   -1.0785    3.0431    0.0000 F   0  0  0  0  0  0  0  0  0  0  0  0
   -0.1430   -3.9694    0.0000 O   0  0  0  0  0  0  0  0  0  0  0  0
   -1.7930   -3.9694    0.0000 O   0  0  0  0  0  0  0  0  0  0  0  0
  1  2  1  0  0  0  0
  2  3  1  0  0  0  0
  3  4  1  0  0  0  0
  4  5  1  0  0  0  0
  5  6  1  0  0  0  0
  5  7  1  0  0  0  0
  5  8  1  0  0  0  0
  8  9  1  0  0  0  0
  8 10  1  0  0  0  0
  8 11  1  0  0  0  0
 11 12  1  0  0  0  0
 11 13  1  0  0  0  0
 11 14  1  0  0  0  0
 14 15  1  0  0  0  0
 14 16  1  0  0  0  0
 14 17  1  0  0  0  0
 17 18  1  0  0  0  0
 17 19  1  0  0  0  0
 17 20  1  0  0  0  0
 20 21  1  0  0  0  0
 20 22  1  0  0  0  0
 20 23  1  0  0  0  0
 23 24  1  0  0  0  0
 23 25  1  0  0  0  0
 25 26  1  0  0  0  0
 25 27  1  0  0  0  0
 25 28  1  0  0  0  0
 23 29  1  0  0  0  0
  2 30  2  0  0  0  0
  2 31  2  0  0  0  0
M  END
> <ChemID>
100060

> <CAS>
481071-78-7

> <Original_SMILES>
[O-]S(=O)(=O)CCC(F)(F)C(F)(F)C(F)(F)C(F)(F)C(F)(F)C(F)(F)C(F)(F)C(F)(F)F

> <preferred_name>
8:2 Fluorotelomer sulfonate

> <dsstox_substance_id>
DTXSID80873416

> <dsstox_compound_id>
DTXCID201011707

> <Canonical_QSARr>
OS(=O)(=O)CCC(F)(F)C(F)(F)C(F)(F)C(F)(F)C(F)(F)C(F)(F)C(F)(F)C(F)(F)F

> <InChI_Code_QSARr>
InChI=1S/C10H5F17O3S/c11-3(12,1-2-31(28,29)30)4(13,14)5(15,16)6(17,18)7(19,20)8(21,22)9(23,24)10(25,26)27/h1-2H2,(H,28,29,30)

> <InChI Key_QSARr>
ALVYVCQIFHTIRD-UHFFFAOYSA-N

> <Salt_Solvent>


> <Salt_Solvent_ID>
0

> <RT>
20.72

$$$$
Row59
  Mrv171c012261910382D          

 34 37  0  0  0  0            999 V2000
   -6.5517   -0.0897    0.0000 O   0  0  0  0  0  0  0  0  0  0  0  0
   -5.8373   -0.5022    0.0000 S   0  0  0  0  0  0  0  0  0  0  0  0
   -6.2498   -1.2167    0.0000 O   0  0  0  0  0  0  0  0  0  0  0  0
   -5.4248    0.2123    0.0000 O   0  0  0  0  0  0  0  0  0  0  0  0
   -5.1228   -0.9147    0.0000 C   0  0  0  0  0  0  0  0  0  0  0  0
   -4.4083   -0.5022    0.0000 C   0  0  0  0  0  0  0  0  0  0  0  0
   -3.6939   -0.9147    0.0000 N   0  0  0  0  0  0  0  0  0  0  0  0
   -2.9794   -0.5022    0.0000 C   0  0  0  0  0  0  0  0  0  0  0  0
   -2.9794    0.3228    0.0000 O   0  0  0  0  0  0  0  0  0  0  0  0
   -2.2649   -0.9147    0.0000 C   0  0  0  0  0  0  0  0  0  0  0  0
   -1.5504   -0.5022    0.0000 C   0  0  0  0  0  0  0  0  0  0  0  0
   -0.8360   -0.9147    0.0000 C   0  0  0  0  0  0  0  0  0  0  0  0
   -0.8360   -1.7397    0.0000 C   0  0  0  0  0  0  0  0  0  0  0  0
   -0.1215   -0.5022    0.0000 C   0  0  0  0  0  0  0  0  0  0  0  0
   -0.0353    0.3183    0.0000 C   0  0  0  0  0  0  0  0  0  0  0  0
    0.7717    0.4898    0.0000 C   0  0  0  0  0  0  0  0  0  0  0  0
    1.1842   -0.2247    0.0000 C   0  0  0  0  0  0  0  0  0  0  0  0
    1.9912   -0.3962    0.0000 C   0  0  0  0  0  0  0  0  0  0  0  0
    2.5432    0.2169    0.0000 C   0  0  0  0  0  0  0  0  0  0  0  0
    3.3502    0.0454    0.0000 C   0  0  0  0  0  0  0  0  0  0  0  0
    3.6051   -0.7393    0.0000 C   0  0  0  0  0  0  0  0  0  0  0  0
    4.4121   -0.9108    0.0000 C   0  0  0  0  0  0  0  0  0  0  0  0
    4.6670   -1.6954    0.0000 C   0  0  0  0  0  0  0  0  0  0  0  0
    5.4740   -1.8669    0.0000 O   0  0  0  0  0  0  0  0  0  0  0  0
    4.1150   -2.3085    0.0000 C   0  0  0  0  0  0  0  0  0  0  0  0
    3.3080   -2.1370    0.0000 C   0  0  0  0  0  0  0  0  0  0  0  0
    3.0531   -1.3524    0.0000 C   0  0  0  0  0  0  0  0  0  0  0  0
    2.5011   -1.9654    0.0000 C   0  0  0  0  0  0  0  0  0  0  0  0
    2.2461   -1.1808    0.0000 C   0  0  0  0  0  0  0  0  0  0  0  0
    1.6941   -1.7939    0.0000 C   0  0  0  0  0  0  0  0  0  0  0  0
    0.8871   -1.6224    0.0000 C   0  0  0  0  0  0  0  0  0  0  0  0
    0.3351   -2.2355    0.0000 O   0  0  0  0  0  0  0  0  0  0  0  0
    0.6322   -0.8378    0.0000 C   0  0  0  0  0  0  0  0  0  0  0  0
    0.0191   -1.3898    0.0000 C   0  0  0  0  0  0  0  0  0  0  0  0
  1  2  2  0  0  0  0
  2  3  2  0  0  0  0
  2  4  1  0  0  0  0
  2  5  1  0  0  0  0
  5  6  1  0  0  0  0
  6  7  1  0  0  0  0
  7  8  1  0  0  0  0
  8  9  2  0  0  0  0
  8 10  1  0  0  0  0
 10 11  1  0  0  0  0
 11 12  1  0  0  0  0
 12 13  1  0  0  0  0
 12 14  1  0  0  0  0
 15 14  1  0  0  0  0
 16 15  1  0  0  0  0
 17 16  1  0  0  0  0
 17 18  1  0  0  0  0
 19 18  1  0  0  0  0
 20 19  1  0  0  0  0
 21 20  1  0  0  0  0
 21 22  1  0  0  0  0
 22 23  1  0  0  0  0
 23 24  1  0  0  0  0
 23 25  1  0  0  0  0
 25 26  1  0  0  0  0
 26 27  1  0  0  0  0
 27 21  1  0  0  0  0
 27 28  1  0  0  0  0
 29 27  1  0  0  0  0
 18 29  1  0  0  0  0
 29 30  1  0  0  0  0
 30 31  1  0  0  0  0
 31 32  1  0  0  0  0
 31 33  1  0  0  0  0
 14 33  1  0  0  0  0
 33 17  1  0  0  0  0
 33 34  1  0  0  0  0
M  END
> <ChemID>
100061

> <CAS>
516-50-7

> <Original_SMILES>
C[C@H](CCC(=O)NCCS(O)(=O)=O)[C@H]1CC[C@H]2[C@@H]3CC[C@@H]4C[C@H](O)CC[C@]4(C)[C@H]3C[C@H](O)[C@@]21C

> <preferred_name>
Taurodesoxycholic acid

> <dsstox_substance_id>
DTXSID00873418

> <dsstox_compound_id>
DTXCID601011709

> <Canonical_QSARr>
CC(CCC(=O)NCCS(O)(=O)=O)C1CCC2C3CCC4CC(O)CCC4(C)C3CC(O)C21C

> <InChI_Code_QSARr>
InChI=1S/C26H45NO6S/c1-16(4-9-24(30)27-12-13-34(31,32)33)20-7-8-21-19-6-5-17-14-18(28)10-11-25(17,2)22(19)15-23(29)26(20,21)3/h16-23,28-29H,4-15H2,1-3H3,(H,27,30)(H,31,32,33)

> <InChI Key_QSARr>
AWDRATDZQPNJFN-UHFFFAOYSA-N

> <Salt_Solvent>


> <Salt_Solvent_ID>
0

> <RT>
18.75

$$$$
Row60
  Mrv171c001122012332D          

 35 34  0  0  0  0            999 V2000
    0.0204   -4.7225    0.0000 O   0  0  0  0  0  0  0  0  0  0  0  0
    0.0204   -3.8975    0.0000 S   0  0  0  0  0  0  0  0  0  0  0  0
    0.0204   -3.0725    0.0000 C   0  0  0  0  0  0  0  0  0  0  0  0
    0.8454   -3.0725    0.0000 F   0  0  0  0  0  0  0  0  0  0  0  0
   -0.8046   -3.0725    0.0000 F   0  0  0  0  0  0  0  0  0  0  0  0
    0.0204   -2.2475    0.0000 C   0  0  0  0  0  0  0  0  0  0  0  0
    0.8454   -2.2475    0.0000 F   0  0  0  0  0  0  0  0  0  0  0  0
   -0.8046   -2.2475    0.0000 F   0  0  0  0  0  0  0  0  0  0  0  0
    0.0204   -1.4225    0.0000 C   0  0  0  0  0  0  0  0  0  0  0  0
    0.8454   -1.4225    0.0000 F   0  0  0  0  0  0  0  0  0  0  0  0
   -0.8046   -1.4225    0.0000 F   0  0  0  0  0  0  0  0  0  0  0  0
    0.0204   -0.5975    0.0000 C   0  0  0  0  0  0  0  0  0  0  0  0
    0.8454   -0.5975    0.0000 F   0  0  0  0  0  0  0  0  0  0  0  0
   -0.8046   -0.5975    0.0000 F   0  0  0  0  0  0  0  0  0  0  0  0
    0.0204    0.2275    0.0000 C   0  0  0  0  0  0  0  0  0  0  0  0
    0.8454    0.2275    0.0000 F   0  0  0  0  0  0  0  0  0  0  0  0
   -0.8046    0.2275    0.0000 F   0  0  0  0  0  0  0  0  0  0  0  0
    0.0204    1.0525    0.0000 C   0  0  0  0  0  0  0  0  0  0  0  0
    0.8454    1.0525    0.0000 F   0  0  0  0  0  0  0  0  0  0  0  0
   -0.8046    1.0525    0.0000 F   0  0  0  0  0  0  0  0  0  0  0  0
    0.0204    1.8775    0.0000 C   0  0  0  0  0  0  0  0  0  0  0  0
    0.8454    1.8775    0.0000 F   0  0  0  0  0  0  0  0  0  0  0  0
   -0.8046    1.8775    0.0000 F   0  0  0  0  0  0  0  0  0  0  0  0
    0.0204    2.7025    0.0000 C   0  0  0  0  0  0  0  0  0  0  0  0
    0.8454    2.7025    0.0000 F   0  0  0  0  0  0  0  0  0  0  0  0
   -0.8046    2.7025    0.0000 F   0  0  0  0  0  0  0  0  0  0  0  0
    0.0204    3.5275    0.0000 C   0  0  0  0  0  0  0  0  0  0  0  0
    0.8454    3.5275    0.0000 F   0  0  0  0  0  0  0  0  0  0  0  0
   -0.8046    3.5275    0.0000 F   0  0  0  0  0  0  0  0  0  0  0  0
    0.0204    4.3525    0.0000 C   0  0  0  0  0  0  0  0  0  0  0  0
    0.0204    5.1775    0.0000 F   0  0  0  0  0  0  0  0  0  0  0  0
    0.8454    4.3525    0.0000 F   0  0  0  0  0  0  0  0  0  0  0  0
   -0.8046    4.3525    0.0000 F   0  0  0  0  0  0  0  0  0  0  0  0
    0.8454   -3.8975    0.0000 O   0  0  0  0  0  0  0  0  0  0  0  0
   -0.8046   -3.8975    0.0000 O   0  0  0  0  0  0  0  0  0  0  0  0
  1  2  1  0  0  0  0
  2  3  1  0  0  0  0
  3  4  1  0  0  0  0
  3  5  1  0  0  0  0
  3  6  1  0  0  0  0
  6  7  1  0  0  0  0
  6  8  1  0  0  0  0
  6  9  1  0  0  0  0
  9 10  1  0  0  0  0
  9 11  1  0  0  0  0
  9 12  1  0  0  0  0
 12 13  1  0  0  0  0
 12 14  1  0  0  0  0
 12 15  1  0  0  0  0
 15 16  1  0  0  0  0
 15 17  1  0  0  0  0
 15 18  1  0  0  0  0
 18 19  1  0  0  0  0
 18 20  1  0  0  0  0
 18 21  1  0  0  0  0
 21 22  1  0  0  0  0
 21 23  1  0  0  0  0
 21 24  1  0  0  0  0
 24 25  1  0  0  0  0
 24 26  1  0  0  0  0
 24 27  1  0  0  0  0
 27 28  1  0  0  0  0
 27 29  1  0  0  0  0
 27 30  1  0  0  0  0
 30 31  1  0  0  0  0
 30 32  1  0  0  0  0
 30 33  1  0  0  0  0
  2 34  2  0  0  0  0
  2 35  2  0  0  0  0
M  END
> <ChemID>
100062

> <CAS>
126105-34-8

> <Original_SMILES>
[O-]S(=O)(=O)C(F)(F)C(F)(F)C(F)(F)C(F)(F)C(F)(F)C(F)(F)C(F)(F)C(F)(F)C(F)(F)C(F)(F)F

> <preferred_name>
Perfluorodecanesulfonate

> <dsstox_substance_id>
DTXSID00873014

> <dsstox_compound_id>
DTXCID40820527

> <Canonical_QSARr>
OS(=O)(=O)C(F)(F)C(F)(F)C(F)(F)C(F)(F)C(F)(F)C(F)(F)C(F)(F)C(F)(F)C(F)(F)C(F)(F)F

> <InChI_Code_QSARr>
InChI=1S/C10HF21O3S/c11-1(12,3(15,16)5(19,20)7(23,24)9(27,28)29)2(13,14)4(17,18)6(21,22)8(25,26)10(30,31)35(32,33)34/h(H,32,33,34)

> <InChI Key_QSARr>
HYWZIAVPBSTISZ-UHFFFAOYSA-N

> <Salt_Solvent>


> <Salt_Solvent_ID>
0

> <RT>
22.51

$$$$
Row61
  Mrv171c012261910382D          

 19 18  0  0  0  0            999 V2000
    4.0499   -3.8399    0.0000 C   0  0  0  0  0  0  0  0  0  0  0  0
    3.3355   -4.2524    0.0000 O   0  0  0  0  0  0  0  0  0  0  0  0
    4.7644   -4.2524    0.0000 O   0  0  0  0  0  0  0  0  0  0  0  0
    4.0499   -3.0149    0.0000 C   0  0  0  0  0  0  0  0  0  0  0  0
    4.8749   -3.0149    0.0000 F   0  0  0  0  0  0  0  0  0  0  0  0
    3.2249   -3.0149    0.0000 F   0  0  0  0  0  0  0  0  0  0  0  0
    4.0499   -2.1899    0.0000 C   0  0  0  0  0  0  0  0  0  0  0  0
    4.8749   -2.1899    0.0000 F   0  0  0  0  0  0  0  0  0  0  0  0
    3.2249   -2.1899    0.0000 F   0  0  0  0  0  0  0  0  0  0  0  0
    4.0499   -1.3649    0.0000 C   0  0  0  0  0  0  0  0  0  0  0  0
    4.8749   -1.3649    0.0000 F   0  0  0  0  0  0  0  0  0  0  0  0
    3.2249   -1.3649    0.0000 F   0  0  0  0  0  0  0  0  0  0  0  0
    4.0499   -0.5399    0.0000 C   0  0  0  0  0  0  0  0  0  0  0  0
    4.8749   -0.5399    0.0000 F   0  0  0  0  0  0  0  0  0  0  0  0
    3.2249   -0.5399    0.0000 F   0  0  0  0  0  0  0  0  0  0  0  0
    4.0499    0.2851    0.0000 C   0  0  0  0  0  0  0  0  0  0  0  0
    4.0499    1.1101    0.0000 F   0  0  0  0  0  0  0  0  0  0  0  0
    4.8749    0.2851    0.0000 F   0  0  0  0  0  0  0  0  0  0  0  0
    3.2249    0.2851    0.0000 F   0  0  0  0  0  0  0  0  0  0  0  0
  1  2  2  0  0  0  0
  1  3  1  0  0  0  0
  1  4  1  0  0  0  0
  4  5  1  0  0  0  0
  4  6  1  0  0  0  0
  4  7  1  0  0  0  0
  7  8  1  0  0  0  0
  7  9  1  0  0  0  0
  7 10  1  0  0  0  0
 10 11  1  0  0  0  0
 10 12  1  0  0  0  0
 10 13  1  0  0  0  0
 13 14  1  0  0  0  0
 13 15  1  0  0  0  0
 13 16  1  0  0  0  0
 16 17  1  0  0  0  0
 16 18  1  0  0  0  0
 16 19  1  0  0  0  0
M  END
> <ChemID>
100063

> <CAS>
307-24-4

> <Original_SMILES>
OC(=O)C(F)(F)C(F)(F)C(F)(F)C(F)(F)C(F)(F)F

> <preferred_name>
Perfluorohexanoic acid

> <dsstox_substance_id>
DTXSID3031862

> <dsstox_compound_id>
DTXCID1011862

> <Canonical_QSARr>
OC(=O)C(F)(F)C(F)(F)C(F)(F)C(F)(F)C(F)(F)F

> <InChI_Code_QSARr>
InChI=1S/C6HF11O2/c7-2(8,1(18)19)3(9,10)4(11,12)5(13,14)6(15,16)17/h(H,18,19)

> <InChI Key_QSARr>
PXUULQAPEKKVAH-UHFFFAOYSA-N

> <Salt_Solvent>


> <Salt_Solvent_ID>
0

> <RT>
8.01

$$$$
Row62
  Mrv171c012261910382D          

 14 15  0  0  0  0            999 V2000
    2.2188   -2.9273    0.0000 O   0  0  0  0  0  0  0  0  0  0  0  0
    2.2188   -2.1023    0.0000 C   0  0  0  0  0  0  0  0  0  0  0  0
    2.9332   -1.6898    0.0000 N   0  0  0  0  0  0  0  0  0  0  0  0
    3.6477   -2.1023    0.0000 C   0  0  0  0  0  0  0  0  0  0  0  0
    2.9332   -0.8648    0.0000 C   0  0  0  0  0  0  0  0  0  0  0  0
    3.6477   -0.4523    0.0000 O   0  0  0  0  0  0  0  0  0  0  0  0
    2.2188   -0.4523    0.0000 N   0  0  0  0  0  0  0  0  0  0  0  0
    2.2188    0.3727    0.0000 C   0  0  0  0  0  0  0  0  0  0  0  0
    1.5043   -0.8648    0.0000 C   0  0  0  0  0  0  0  0  0  0  0  0
    0.7197   -0.6098    0.0000 N   0  0  0  0  0  0  0  0  0  0  0  0
    0.2348   -1.2773    0.0000 C   0  0  0  0  0  0  0  0  0  0  0  0
    0.7197   -1.9447    0.0000 N   0  0  0  0  0  0  0  0  0  0  0  0
    0.4647   -2.7293    0.0000 C   0  0  0  0  0  0  0  0  0  0  0  0
    1.5043   -1.6898    0.0000 C   0  0  0  0  0  0  0  0  0  0  0  0
  1  2  2  0  0  0  0
  3  2  1  0  0  0  0
  3  4  1  0  0  0  0
  5  3  1  0  0  0  0
  5  6  2  0  0  0  0
  7  5  1  0  0  0  0
  7  8  1  0  0  0  0
  9  7  1  0  0  0  0
  9 10  1  0  0  0  0
 10 11  2  0  0  0  0
 11 12  1  0  0  0  0
 12 13  1  0  0  0  0
 12 14  1  0  0  0  0
  2 14  1  0  0  0  0
 14  9  2  0  0  0  0
M  END
> <ChemID>
100064

> <CAS>
58-08-2

> <Original_SMILES>
CN1C(=O)c2c([n]c[n]2C)N(C)C1=O

> <preferred_name>
Caffeine

> <dsstox_substance_id>
DTXSID0020232

> <dsstox_compound_id>
DTXCID40232

> <Canonical_QSARr>
CN1C(=O)C2=C(N=CN2C)N(C)C1=O

> <InChI_Code_QSARr>
InChI=1S/C8H10N4O2/c1-10-4-9-6-5(10)7(13)12(3)8(14)11(6)2/h4H,1-3H3

> <InChI Key_QSARr>
RYYVLZVUVIJVGH-UHFFFAOYSA-N

> <Salt_Solvent>


> <Salt_Solvent_ID>
0

> <RT>
1.43

$$$$
Row63
  Mrv171c012261910382D          

 24 25  0  0  0  0            999 V2000
    5.3478   -3.2101    0.0000 N   0  0  0  0  0  0  0  0  0  0  0  0
    5.3478   -2.3851    0.0000 C   0  0  0  0  0  0  0  0  0  0  0  0
    4.6333   -1.9726    0.0000 C   0  0  0  0  0  0  0  0  0  0  0  0
    4.6333   -1.1476    0.0000 S   0  0  0  0  0  0  0  0  0  0  0  0
    3.9188   -0.7351    0.0000 C   0  0  0  0  0  0  0  0  0  0  0  0
    3.9188    0.0899    0.0000 C   0  0  0  0  0  0  0  0  0  0  0  0
    4.6333    0.5024    0.0000 C   0  0  0  0  0  0  0  0  0  0  0  0
    4.6333    1.3274    0.0000 C   0  0  0  0  0  0  0  0  0  0  0  0
    3.9188    1.7399    0.0000 C   0  0  0  0  0  0  0  0  0  0  0  0
    3.9188    2.5649    0.0000 C   0  0  0  0  0  0  0  0  0  0  0  0
    3.9188    3.3899    0.0000 C   0  0  0  0  0  0  0  0  0  0  0  0
    3.0938    2.5649    0.0000 C   0  0  0  0  0  0  0  0  0  0  0  0
    4.7438    2.5649    0.0000 C   0  0  0  0  0  0  0  0  0  0  0  0
    3.2044    1.3274    0.0000 C   0  0  0  0  0  0  0  0  0  0  0  0
    3.2044    0.5024    0.0000 C   0  0  0  0  0  0  0  0  0  0  0  0
    3.9188   -2.3851    0.0000 C   0  0  0  0  0  0  0  0  0  0  0  0
    3.2044   -1.9726    0.0000 Cl  0  0  0  0  0  0  0  0  0  0  0  0
    3.9188   -3.2101    0.0000 C   0  0  0  0  0  0  0  0  0  0  0  0
    3.2044   -3.6226    0.0000 O   0  0  0  0  0  0  0  0  0  0  0  0
    4.6333   -3.6226    0.0000 N   0  0  0  0  0  0  0  0  0  0  0  0
    4.6333   -4.4476    0.0000 C   0  0  0  0  0  0  0  0  0  0  0  0
    4.6333   -5.2726    0.0000 C   0  0  0  0  0  0  0  0  0  0  0  0
    3.8083   -4.4476    0.0000 C   0  0  0  0  0  0  0  0  0  0  0  0
    5.4583   -4.4476    0.0000 C   0  0  0  0  0  0  0  0  0  0  0  0
  2  1  2  0  0  0  0
  3  2  1  0  0  0  0
  3  4  1  0  0  0  0
  4  5  1  0  0  0  0
  5  6  1  0  0  0  0
  7  6  1  0  0  0  0
  8  7  2  0  0  0  0
  9  8  1  0  0  0  0
  9 10  1  0  0  0  0
 10 11  1  0  0  0  0
 10 12  1  0  0  0  0
 10 13  1  0  0  0  0
 14  9  2  0  0  0  0
 15 14  1  0  0  0  0
  6 15  2  0  0  0  0
 16  3  2  0  0  0  0
 16 17  1  0  0  0  0
 18 16  1  0  0  0  0
 18 19  2  0  0  0  0
 20 18  1  0  0  0  0
  1 20  1  0  0  0  0
 20 21  1  0  0  0  0
 21 22  1  0  0  0  0
 21 23  1  0  0  0  0
 21 24  1  0  0  0  0
M  END
> <ChemID>
100065

> <CAS>
96489-71-3

> <Original_SMILES>
CC(C)(C)N1N=CC(SCc2ccc(cc2)C(C)(C)C)=C(Cl)C1=O

> <preferred_name>
Pyridaben

> <dsstox_substance_id>
DTXSID5032573

> <dsstox_compound_id>
DTXCID3012573

> <Canonical_QSARr>
CC(C)(C)N1N=CC(SCC2C=CC(=CC=2)C(C)(C)C)=C(Cl)C1=O

> <InChI_Code_QSARr>
InChI=1S/C19H25ClN2OS/c1-18(2,3)14-9-7-13(8-10-14)12-24-15-11-21-22(19(4,5)6)17(23)16(15)20/h7-11H,12H2,1-6H3

> <InChI Key_QSARr>
DWFZBUWUXWZWKD-UHFFFAOYSA-N

> <Salt_Solvent>


> <Salt_Solvent_ID>
0

> <RT>
29.09

$$$$
Row64
  Mrv171c012261910382D          

  7  7  0  0  0  0            999 V2000
    0.7044   -0.5013    0.0000 N   0  0  0  0  0  0  0  0  0  0  0  0
    0.0369   -0.0164    0.0000 C   0  0  0  0  0  0  0  0  0  0  0  0
    0.0369    0.8086    0.0000 S   0  0  0  0  0  0  0  0  0  0  0  0
   -0.6305   -0.5013    0.0000 N   0  0  0  0  0  0  0  0  0  0  0  0
   -1.4151   -0.2464    0.0000 C   0  0  0  0  0  0  0  0  0  0  0  0
   -0.3756   -1.2860    0.0000 C   0  0  0  0  0  0  0  0  0  0  0  0
    0.4494   -1.2860    0.0000 C   0  0  0  0  0  0  0  0  0  0  0  0
  2  1  1  0  0  0  0
  2  3  2  0  0  0  0
  4  2  1  0  0  0  0
  4  5  1  0  0  0  0
  6  4  1  0  0  0  0
  7  6  1  0  0  0  0
  1  7  2  0  0  0  0
M  END
> <ChemID>
100066

> <CAS>
60-56-0

> <Original_SMILES>
CN1C=CNC1=S

> <preferred_name>
Methimazole

> <dsstox_substance_id>
DTXSID4020820

> <dsstox_compound_id>
DTXCID20820

> <Canonical_QSARr>
CN1CC=NC1=S

> <InChI_Code_QSARr>
InChI=1S/C4H6N2S/c1-6-3-2-5-4(6)7/h2H,3H2,1H3

> <InChI Key_QSARr>
IVAWMVACECMAGC-UHFFFAOYSA-N

> <Salt_Solvent>


> <Salt_Solvent_ID>
0

> <RT>
1.06

$$$$
Row65
  Mrv171c012261910382D          

 14 13  0  0  0  0            999 V2000
    2.6322   -2.3872    0.0000 Sn  0  0  0  0  0  0  0  0  0  0  0  0
    1.8072   -2.3872    0.0000 Cl  0  0  0  0  0  0  0  0  0  0  0  0
    2.6322   -3.2122    0.0000 C   0  0  0  0  0  0  0  0  0  0  0  0
    1.9178   -3.6247    0.0000 C   0  0  0  0  0  0  0  0  0  0  0  0
    1.2033   -3.2122    0.0000 C   0  0  0  0  0  0  0  0  0  0  0  0
    0.4888   -3.6247    0.0000 C   0  0  0  0  0  0  0  0  0  0  0  0
    2.6322   -1.5622    0.0000 C   0  0  0  0  0  0  0  0  0  0  0  0
    1.9178   -1.1497    0.0000 C   0  0  0  0  0  0  0  0  0  0  0  0
    1.9178   -0.3247    0.0000 C   0  0  0  0  0  0  0  0  0  0  0  0
    1.2033    0.0878    0.0000 C   0  0  0  0  0  0  0  0  0  0  0  0
    3.4572   -2.3872    0.0000 C   0  0  0  0  0  0  0  0  0  0  0  0
    3.8697   -3.1017    0.0000 C   0  0  0  0  0  0  0  0  0  0  0  0
    3.4572   -3.8161    0.0000 C   0  0  0  0  0  0  0  0  0  0  0  0
    2.6322   -3.8161    0.0000 C   0  0  0  0  0  0  0  0  0  0  0  0
  1  2  1  0  0  0  0
  1  3  1  0  0  0  0
  3  4  1  0  0  0  0
  4  5  1  0  0  0  0
  5  6  1  0  0  0  0
  1  7  1  0  0  0  0
  7  8  1  0  0  0  0
  8  9  1  0  0  0  0
  9 10  1  0  0  0  0
  1 11  1  0  0  0  0
 11 12  1  0  0  0  0
 12 13  1  0  0  0  0
 13 14  1  0  0  0  0
M  END
> <ChemID>
100067

> <CAS>
1461-22-9

> <Original_SMILES>
CCCC[Sn](Cl)(CCCC)CCCC

> <preferred_name>
Tributyltin chloride

> <dsstox_substance_id>
DTXSID3027403

> <dsstox_compound_id>
DTXCID707403

> <Canonical_QSARr>
CCCC[Sn](Cl)(CCCC)CCCC

> <InChI_Code_QSARr>
InChI=1S/3C4H9.ClH.Sn/c3*1-3-4-2;;/h3*1,3-4H2,2H3;1H;/q;;;;+1/p-1

> <InChI Key_QSARr>
GCTFWCDSFPMHHS-UHFFFAOYSA-M

> <Salt_Solvent>


> <Salt_Solvent_ID>
0

> <RT>
29.74

$$$$
Row66
  Mrv171c012261910382D          

 20 21  0  0  0  0            999 V2000
    2.4717   -2.4544    0.0000 N   0  0  0  0  0  0  0  0  0  0  0  0
    1.7572   -2.8669    0.0000 C   0  0  0  0  0  0  0  0  0  0  0  0
    1.7572   -3.6919    0.0000 C   0  0  0  0  0  0  0  0  0  0  0  0
    3.1861   -2.8669    0.0000 C   0  0  0  0  0  0  0  0  0  0  0  0
    3.9006   -2.4544    0.0000 C   0  0  0  0  0  0  0  0  0  0  0  0
    2.4717   -1.6294    0.0000 C   0  0  0  0  0  0  0  0  0  0  0  0
    3.1861   -1.2169    0.0000 C   0  0  0  0  0  0  0  0  0  0  0  0
    3.1861   -0.3919    0.0000 C   0  0  0  0  0  0  0  0  0  0  0  0
    2.4717    0.0206    0.0000 C   0  0  0  0  0  0  0  0  0  0  0  0
    2.4717    0.8456    0.0000 C   0  0  0  0  0  0  0  0  0  0  0  0
    3.1861    1.2581    0.0000 C   0  0  0  0  0  0  0  0  0  0  0  0
    3.1861    2.0831    0.0000 C   0  0  0  0  0  0  0  0  0  0  0  0
    3.9006    2.4956    0.0000 C   0  0  0  0  0  0  0  0  0  0  0  0
    3.9006    3.3206    0.0000 C   0  0  0  0  0  0  0  0  0  0  0  0
    3.1861    3.7331    0.0000 N   0  3  0  0  0  0  0  0  0  0  0  0
    3.1861    4.5581    0.0000 C   0  0  0  0  0  0  0  0  0  0  0  0
    2.4717    3.3206    0.0000 C   0  0  0  0  0  0  0  0  0  0  0  0
    2.4717    2.4956    0.0000 C   0  0  0  0  0  0  0  0  0  0  0  0
    1.7572   -0.3919    0.0000 C   0  0  0  0  0  0  0  0  0  0  0  0
    1.7572   -1.2169    0.0000 C   0  0  0  0  0  0  0  0  0  0  0  0
  1  2  1  0  0  0  0
  2  3  1  0  0  0  0
  1  4  1  0  0  0  0
  4  5  1  0  0  0  0
  1  6  1  0  0  0  0
  7  6  1  0  0  0  0
  8  7  2  0  0  0  0
  9  8  1  0  0  0  0
  9 10  1  0  0  0  0
 10 11  2  0  0  0  0
 11 12  1  0  0  0  0
 13 12  1  0  0  0  0
 14 13  2  0  0  0  0
 15 14  1  0  0  0  0
 15 16  1  0  0  0  0
 17 15  2  0  0  0  0
 18 17  1  0  0  0  0
 12 18  2  0  0  0  0
 19  9  2  0  0  0  0
 20 19  1  0  0  0  0
  6 20  2  0  0  0  0
M  CHG  1  15   1
M  END
> <ChemID>
100068

> <CAS>
133338-40-6

> <Original_SMILES>
C[n+]1ccc(cc1)C=Cc1ccc(cc1)N(CC)CC

> <preferred_name>
Pyridinium, 4-[2-[4-(diethylamino)phenyl]ethenyl]-1-methyl-

> <dsstox_substance_id>
DTXSID50276253

> <dsstox_compound_id>
DTXCID00227578

> <Canonical_QSARr>
C[N+]1C=CC(/C=C/C2C=CC(=CC=2)N(CC)CC)=CC=1

> <InChI_Code_QSARr>
InChI=1S/C18H23N2/c1-4-20(5-2)18-10-8-16(9-11-18)6-7-17-12-14-19(3)15-13-17/h6-15H,4-5H2,1-3H3/q+1

> <InChI Key_QSARr>
YCCVVPMYSGPISC-UHFFFAOYSA-N

> <Salt_Solvent>


> <Salt_Solvent_ID>
0

> <RT>
14.55

$$$$
Row67
  Mrv171c012261910382D          

 23 24  0  0  0  0            999 V2000
    2.5116   -4.3896    0.0000 C   0  0  0  0  0  0  0  0  0  0  0  0
    3.2261   -3.9771    0.0000 C   0  0  0  0  0  0  0  0  0  0  0  0
    3.2261   -3.1521    0.0000 C   0  0  0  0  0  0  0  0  0  0  0  0
    2.5116   -2.7396    0.0000 C   0  0  0  0  0  0  0  0  0  0  0  0
    2.5116   -1.9146    0.0000 C   0  0  0  0  0  0  0  0  0  0  0  0
    1.6866   -1.9146    0.0000 C   0  0  0  0  0  0  0  0  0  0  0  0
    0.8616   -1.9146    0.0000 F   0  0  0  0  0  0  0  0  0  0  0  0
    1.6866   -1.0896    0.0000 F   0  0  0  0  0  0  0  0  0  0  0  0
    1.6866   -2.7396    0.0000 F   0  0  0  0  0  0  0  0  0  0  0  0
    3.3366   -1.9146    0.0000 C   0  0  0  0  0  0  0  0  0  0  0  0
    4.1616   -1.9146    0.0000 F   0  0  0  0  0  0  0  0  0  0  0  0
    3.3366   -1.0896    0.0000 F   0  0  0  0  0  0  0  0  0  0  0  0
    3.3366   -2.7396    0.0000 F   0  0  0  0  0  0  0  0  0  0  0  0
    2.5116   -1.0896    0.0000 C   0  0  0  0  0  0  0  0  0  0  0  0
    3.2261   -0.6771    0.0000 C   0  0  0  0  0  0  0  0  0  0  0  0
    3.2261    0.1479    0.0000 C   0  0  0  0  0  0  0  0  0  0  0  0
    2.5116    0.5604    0.0000 C   0  0  0  0  0  0  0  0  0  0  0  0
    2.5116    1.3854    0.0000 O   0  0  0  0  0  0  0  0  0  0  0  0
    1.7971    0.1479    0.0000 C   0  0  0  0  0  0  0  0  0  0  0  0
    1.7971   -0.6771    0.0000 C   0  0  0  0  0  0  0  0  0  0  0  0
    1.7971   -3.1521    0.0000 C   0  0  0  0  0  0  0  0  0  0  0  0
    1.7971   -3.9771    0.0000 C   0  0  0  0  0  0  0  0  0  0  0  0
    2.5116   -5.2146    0.0000 O   0  0  0  0  0  0  0  0  0  0  0  0
  2  1  1  0  0  0  0
  3  2  2  0  0  0  0
  4  3  1  0  0  0  0
  4  5  1  0  0  0  0
  5  6  1  0  0  0  0
  6  7  1  0  0  0  0
  6  8  1  0  0  0  0
  6  9  1  0  0  0  0
  5 10  1  0  0  0  0
 10 11  1  0  0  0  0
 10 12  1  0  0  0  0
 10 13  1  0  0  0  0
  5 14  1  0  0  0  0
 15 14  2  0  0  0  0
 16 15  1  0  0  0  0
 17 16  2  0  0  0  0
 17 18  1  0  0  0  0
 19 17  1  0  0  0  0
 20 19  2  0  0  0  0
 14 20  1  0  0  0  0
 21  4  2  0  0  0  0
 22 21  1  0  0  0  0
  1 22  2  0  0  0  0
  1 23  1  0  0  0  0
M  END
> <ChemID>
100069

> <CAS>
1478-61-1

> <Original_SMILES>
Oc1ccc(cc1)C(c1ccc(O)cc1)(C(F)(F)F)C(F)(F)F

> <preferred_name>
Bisphenol AF

> <dsstox_substance_id>
DTXSID7037717

> <dsstox_compound_id>
DTXCID5017717

> <Canonical_QSARr>
OC1C=CC(=CC=1)C(C1C=CC(O)=CC=1)(C(F)(F)F)C(F)(F)F

> <InChI_Code_QSARr>
InChI=1S/C15H10F6O2/c16-14(17,18)13(15(19,20)21,9-1-5-11(22)6-2-9)10-3-7-12(23)8-4-10/h1-8,22-23H

> <InChI Key_QSARr>
ZFVMWEVVKGLCIJ-UHFFFAOYSA-N

> <Salt_Solvent>


> <Salt_Solvent_ID>
0

> <RT>
20.82

$$$$
Row68
  Mrv171c012261910382D          

 16 17  0  0  0  0            999 V2000
    5.2900   -4.4474    0.0000 C   0  0  0  0  0  0  0  0  0  0  0  0
    6.0045   -4.0349    0.0000 C   0  0  0  0  0  0  0  0  0  0  0  0
    6.0045   -3.2099    0.0000 C   0  0  0  0  0  0  0  0  0  0  0  0
    5.2900   -2.7974    0.0000 C   0  0  0  0  0  0  0  0  0  0  0  0
    5.2900   -1.9724    0.0000 C   0  0  0  0  0  0  0  0  0  0  0  0
    6.0045   -1.5599    0.0000 C   0  0  0  0  0  0  0  0  0  0  0  0
    4.5756   -1.5599    0.0000 C   0  0  0  0  0  0  0  0  0  0  0  0
    4.5756   -0.7349    0.0000 C   0  0  0  0  0  0  0  0  0  0  0  0
    3.8611   -0.3224    0.0000 C   0  0  0  0  0  0  0  0  0  0  0  0
    3.1466   -0.7349    0.0000 C   0  0  0  0  0  0  0  0  0  0  0  0
    2.4322   -0.3224    0.0000 O   0  0  0  0  0  0  0  0  0  0  0  0
    3.1466   -1.5599    0.0000 C   0  0  0  0  0  0  0  0  0  0  0  0
    3.8611   -1.9724    0.0000 C   0  0  0  0  0  0  0  0  0  0  0  0
    4.5756   -3.2099    0.0000 C   0  0  0  0  0  0  0  0  0  0  0  0
    4.5756   -4.0349    0.0000 C   0  0  0  0  0  0  0  0  0  0  0  0
    5.2900   -5.2724    0.0000 O   0  0  0  0  0  0  0  0  0  0  0  0
  2  1  1  0  0  0  0
  3  2  2  0  0  0  0
  4  3  1  0  0  0  0
  4  5  1  0  0  0  0
  5  6  1  0  0  0  0
  5  7  1  0  0  0  0
  8  7  2  0  0  0  0
  9  8  1  0  0  0  0
 10  9  2  0  0  0  0
 10 11  1  0  0  0  0
 12 10  1  0  0  0  0
 13 12  2  0  0  0  0
  7 13  1  0  0  0  0
 14  4  2  0  0  0  0
 15 14  1  0  0  0  0
  1 15  2  0  0  0  0
  1 16  1  0  0  0  0
M  END
> <ChemID>
100070

> <CAS>
2081-08-5

> <Original_SMILES>
CC(c1ccc(O)cc1)c1ccc(O)cc1

> <preferred_name>
Bisphenol E

> <dsstox_substance_id>
DTXSID3047891

> <dsstox_compound_id>
DTXCID9027867

> <Canonical_QSARr>
CC(C1C=CC(O)=CC=1)C1C=CC(O)=CC=1

> <InChI_Code_QSARr>
InChI=1S/C14H14O2/c1-10(11-2-6-13(15)7-3-11)12-4-8-14(16)9-5-12/h2-10,15-16H,1H3

> <InChI Key_QSARr>
HCNHNBLSNVSJTJ-UHFFFAOYSA-N

> <Salt_Solvent>


> <Salt_Solvent_ID>
0

> <RT>
13.37

$$$$
Row69
  Mrv171c012261910382D          

 20 21  0  0  0  0            999 V2000
   -0.7145   -0.4125    0.0000 C   0  0  0  0  0  0  0  0  0  0  0  0
   -0.7145   -1.2375    0.0000 C   0  0  0  0  0  0  0  0  0  0  0  0
    0.0000   -1.6500    0.0000 C   0  0  0  0  0  0  0  0  0  0  0  0
    0.0000   -2.4750    0.0000 C   0  0  0  0  0  0  0  0  0  0  0  0
    0.7145   -2.8875    0.0000 C   0  0  0  0  0  0  0  0  0  0  0  0
    0.7145   -3.7125    0.0000 C   0  0  0  0  0  0  0  0  0  0  0  0
    0.0000   -4.1250    0.0000 C   0  0  0  0  0  0  0  0  0  0  0  0
    0.0000   -4.9500    0.0000 O   0  0  0  0  0  0  0  0  0  0  0  0
   -0.7145   -3.7125    0.0000 C   0  0  0  0  0  0  0  0  0  0  0  0
   -0.7145   -2.8875    0.0000 C   0  0  0  0  0  0  0  0  0  0  0  0
    0.7145   -1.2375    0.0000 C   0  0  0  0  0  0  0  0  0  0  0  0
    1.4289   -1.6500    0.0000 C   0  0  0  0  0  0  0  0  0  0  0  0
    2.1434   -1.2375    0.0000 C   0  0  0  0  0  0  0  0  0  0  0  0
    0.7145   -0.4125    0.0000 C   0  0  0  0  0  0  0  0  0  0  0  0
    0.0000    0.0000    0.0000 C   0  0  0  0  0  0  0  0  0  0  0  0
    0.0000    0.8250    0.0000 C   0  0  0  0  0  0  0  0  0  0  0  0
    0.7145    1.2375    0.0000 C   0  0  0  0  0  0  0  0  0  0  0  0
    0.7145    2.0625    0.0000 O   0  0  0  0  0  0  0  0  0  0  0  0
    1.4289    0.8250    0.0000 C   0  0  0  0  0  0  0  0  0  0  0  0
    1.4289   -0.0000    0.0000 C   0  0  0  0  0  0  0  0  0  0  0  0
  1  2  1  0  0  0  0
  3  2  1  4  0  0  0
  3  4  1  0  0  0  0
  4  5  1  0  0  0  0
  5  6  2  0  0  0  0
  6  7  1  0  0  0  0
  7  8  1  0  0  0  0
  7  9  2  0  0  0  0
  9 10  1  0  0  0  0
  4 10  2  0  0  0  0
  3 11  2  0  0  0  0
 11 12  1  0  0  0  0
 12 13  1  0  0  0  0
 11 14  1  0  0  0  0
 14 15  1  0  0  0  0
 15 16  2  0  0  0  0
 16 17  1  0  0  0  0
 17 18  1  0  0  0  0
 17 19  2  0  0  0  0
 19 20  1  0  0  0  0
 14 20  2  0  0  0  0
M  END
> <ChemID>
100071

> <CAS>
56-53-1

> <Original_SMILES>
CC/C(/c1ccc(O)cc1)=C(/CC)\c1ccc(O)cc1

> <preferred_name>
Diethylstilbestrol

> <dsstox_substance_id>
DTXSID3020465

> <dsstox_compound_id>
DTXCID10465

> <Canonical_QSARr>
CCC(C1C=CC(O)=CC=1)=C(CC)C1C=CC(O)=CC=1

> <InChI_Code_QSARr>
InChI=1S/C18H20O2/c1-3-17(13-5-9-15(19)10-6-13)18(4-2)14-7-11-16(20)12-8-14/h5-12,19-20H,3-4H2,1-2H3

> <InChI Key_QSARr>
RGLYKWWBQGJZGM-UHFFFAOYSA-N

> <Salt_Solvent>


> <Salt_Solvent_ID>
0

> <RT>
19.5

$$$$
Row70
  Mrv171c012261910382D          

 19 20  0  0  0  0            999 V2000
    1.9982   -1.9619    0.0000 N   0  0  0  0  0  0  0  0  0  0  0  0
    2.7126   -2.3744    0.0000 C   0  0  0  0  0  0  0  0  0  0  0  0
    2.7126   -3.1994    0.0000 C   0  0  0  0  0  0  0  0  0  0  0  0
    3.4271   -3.6119    0.0000 C   0  0  0  0  0  0  0  0  0  0  0  0
    4.1416   -3.1994    0.0000 C   0  0  0  0  0  0  0  0  0  0  0  0
    4.1416   -2.3744    0.0000 C   0  0  0  0  0  0  0  0  0  0  0  0
    3.4271   -1.9619    0.0000 C   0  0  0  0  0  0  0  0  0  0  0  0
    3.4271   -1.1369    0.0000 C   0  0  0  0  0  0  0  0  0  0  0  0
    4.1416   -0.7244    0.0000 C   0  0  0  0  0  0  0  0  0  0  0  0
    4.1416    0.1006    0.0000 O   0  0  0  0  0  0  0  0  0  0  0  0
    4.8560   -1.1369    0.0000 O   0  0  0  0  0  0  0  0  0  0  0  0
    1.2837   -2.3744    0.0000 C   0  0  0  0  0  0  0  0  0  0  0  0
    0.5692   -1.9619    0.0000 C   0  0  0  0  0  0  0  0  0  0  0  0
    0.5692   -1.1369    0.0000 Cl  0  0  0  0  0  0  0  0  0  0  0  0
   -0.1453   -2.3744    0.0000 C   0  0  0  0  0  0  0  0  0  0  0  0
   -0.1453   -3.1994    0.0000 C   0  0  0  0  0  0  0  0  0  0  0  0
    0.5692   -3.6119    0.0000 C   0  0  0  0  0  0  0  0  0  0  0  0
    1.2837   -3.1994    0.0000 C   0  0  0  0  0  0  0  0  0  0  0  0
    1.9982   -3.6119    0.0000 Cl  0  0  0  0  0  0  0  0  0  0  0  0
  1  2  1  0  0  0  0
  3  2  1  0  0  0  0
  4  3  2  0  0  0  0
  5  4  1  0  0  0  0
  6  5  2  0  0  0  0
  7  6  1  0  0  0  0
  2  7  2  0  0  0  0
  7  8  1  0  0  0  0
  8  9  1  0  0  0  0
  9 10  2  0  0  0  0
  9 11  1  0  0  0  0
  1 12  1  0  0  0  0
 13 12  2  0  0  0  0
 13 14  1  0  0  0  0
 15 13  1  0  0  0  0
 16 15  2  0  0  0  0
 17 16  1  0  0  0  0
 18 17  2  0  0  0  0
 12 18  1  0  0  0  0
 18 19  1  0  0  0  0
M  END
> <ChemID>
100072

> <CAS>
15307-86-5

> <Original_SMILES>
OC(=O)Cc1ccccc1Nc1c(Cl)cccc1Cl

> <preferred_name>
Diclofenac

> <dsstox_substance_id>
DTXSID6022923

> <dsstox_compound_id>
DTXCID802923

> <Canonical_QSARr>
OC(=O)CC1C=CC=CC=1NC1C(Cl)=CC=CC=1Cl

> <InChI_Code_QSARr>
InChI=1S/C14H11Cl2NO2/c15-10-5-3-6-11(16)14(10)17-12-7-2-1-4-9(12)8-13(18)19/h1-7,17H,8H2,(H,18,19)

> <InChI Key_QSARr>
DCOPUUMXTXDBNB-UHFFFAOYSA-N

> <Salt_Solvent>


> <Salt_Solvent_ID>
0

> <RT>
14.99

$$$$
Row71
  Mrv171c012261910382D          

 11 12  0  0  0  0            999 V2000
    3.5210   -0.4105    0.0000 C   0  0  0  0  0  0  0  0  0  0  0  0
    2.8065    0.0020    0.0000 C   0  0  0  0  0  0  0  0  0  0  0  0
    2.0920   -0.4105    0.0000 C   0  0  0  0  0  0  0  0  0  0  0  0
    1.3074   -0.1555    0.0000 O   0  0  0  0  0  0  0  0  0  0  0  0
    0.8225   -0.8230    0.0000 C   0  0  0  0  0  0  0  0  0  0  0  0
    1.3074   -1.4904    0.0000 N   0  0  0  0  0  0  0  0  0  0  0  0
    2.0920   -1.2355    0.0000 C   0  0  0  0  0  0  0  0  0  0  0  0
    2.8065   -1.6480    0.0000 C   0  0  0  0  0  0  0  0  0  0  0  0
    3.5210   -1.2355    0.0000 C   0  0  0  0  0  0  0  0  0  0  0  0
    4.2354   -1.6480    0.0000 Cl  0  0  0  0  0  0  0  0  0  0  0  0
   -0.0025   -0.8230    0.0000 O   0  0  0  0  0  0  0  0  0  0  0  0
  2  1  1  0  0  0  0
  3  2  2  0  0  0  0
  3  4  1  0  0  0  0
  4  5  1  0  0  0  0
  5  6  1  0  0  0  0
  6  7  1  0  0  0  0
  7  3  1  0  0  0  0
  8  7  2  0  0  0  0
  9  8  1  0  0  0  0
  1  9  2  0  0  0  0
  9 10  1  0  0  0  0
  5 11  2  0  0  0  0
M  END
> <ChemID>
100073

> <CAS>
95-25-0

> <Original_SMILES>
O=C1Nc2cc(Cl)ccc2O1

> <preferred_name>
Chlorzoxazone

> <dsstox_substance_id>
DTXSID9022813

> <dsstox_compound_id>
DTXCID302813

> <Canonical_QSARr>
O=C1NC2=CC(Cl)=CC=C2O1

> <InChI_Code_QSARr>
InChI=1S/C7H4ClNO2/c8-4-1-2-6-5(3-4)9-7(10)11-6/h1-3H,(H,9,10)

> <InChI Key_QSARr>
TZFWDZFKRBELIQ-UHFFFAOYSA-N

> <Salt_Solvent>


> <Salt_Solvent_ID>
0

> <RT>
8.08

$$$$
Row72
  Mrv171c012261910382D          

 13 13  0  0  0  0            999 V2000
    2.4199   -3.6189    0.0000 C   0  0  0  0  0  0  0  0  0  0  0  0
    2.4199   -2.7939    0.0000 C   0  0  0  0  0  0  0  0  0  0  0  0
    3.1344   -2.3814    0.0000 N   0  0  0  0  0  0  0  0  0  0  0  0
    3.1344   -1.5564    0.0000 C   0  0  0  0  0  0  0  0  0  0  0  0
    3.8488   -1.1439    0.0000 C   0  0  0  0  0  0  0  0  0  0  0  0
    3.8488   -0.3189    0.0000 C   0  0  0  0  0  0  0  0  0  0  0  0
    3.1344    0.0936    0.0000 C   0  0  0  0  0  0  0  0  0  0  0  0
    3.1344    0.9186    0.0000 O   0  0  0  0  0  0  0  0  0  0  0  0
    3.8488    1.3311    0.0000 C   0  0  0  0  0  0  0  0  0  0  0  0
    3.8488    2.1561    0.0000 C   0  0  0  0  0  0  0  0  0  0  0  0
    2.4199   -0.3189    0.0000 C   0  0  0  0  0  0  0  0  0  0  0  0
    2.4199   -1.1439    0.0000 C   0  0  0  0  0  0  0  0  0  0  0  0
    1.7054   -2.3814    0.0000 O   0  0  0  0  0  0  0  0  0  0  0  0
  1  2  1  0  0  0  0
  2  3  1  0  0  0  0
  3  4  1  0  0  0  0
  5  4  1  0  0  0  0
  6  5  2  0  0  0  0
  7  6  1  0  0  0  0
  7  8  1  0  0  0  0
  8  9  1  0  0  0  0
  9 10  1  0  0  0  0
 11  7  2  0  0  0  0
 12 11  1  0  0  0  0
  4 12  2  0  0  0  0
  2 13  2  0  0  0  0
M  END
> <ChemID>
100074

> <CAS>
62-44-2

> <Original_SMILES>
CC(=O)Nc1ccc(cc1)OCC

> <preferred_name>
Phenacetin

> <dsstox_substance_id>
DTXSID1021116

> <dsstox_compound_id>
DTXCID001116

> <Canonical_QSARr>
CC(=O)NC1C=CC(=CC=1)OCC

> <InChI_Code_QSARr>
InChI=1S/C10H13NO2/c1-3-13-10-6-4-9(5-7-10)11-8(2)12/h4-7H,3H2,1-2H3,(H,11,12)

> <InChI Key_QSARr>
CPJSUEIXXCENMM-UHFFFAOYSA-N

> <Salt_Solvent>


> <Salt_Solvent_ID>
0

> <RT>
4.9

$$$$
Row73
  Mrv171c012261910382D          

 20 23  0  0  0  0            999 V2000
    1.4669   -2.5401    0.0000 C   0  0  0  0  0  0  0  0  0  0  0  0
    2.2022   -2.9142    0.0000 C   0  0  0  0  0  0  0  0  0  0  0  0
    3.1261   -2.4865    0.0000 C   0  0  0  0  0  0  0  0  0  0  0  0
    2.8501   -1.6406    0.0000 C   0  0  0  0  0  0  0  0  0  0  0  0
    2.0927   -1.4988    0.0000 C   0  0  0  0  0  0  0  0  0  0  0  0
    1.4232   -1.7163    0.0000 C   0  0  0  0  0  0  0  0  0  0  0  0
    0.8339   -0.4793    0.0000 C   0  0  0  0  0  0  0  0  0  0  0  0
    0.1980   -1.0049    0.0000 N   0  0  0  0  0  0  0  0  0  0  0  0
   -0.5309   -0.6185    0.0000 C   0  0  0  0  0  0  0  0  0  0  0  0
    0.1200   -1.8262    0.0000 C   0  0  0  0  0  0  0  0  0  0  0  0
    0.6456   -2.4621    0.0000 C   0  0  0  0  0  0  0  0  0  0  0  0
    1.6552   -0.5573    0.0000 C   0  0  0  0  0  0  0  0  0  0  0  0
    2.1808   -1.1933    0.0000 C   0  0  0  0  0  0  0  0  0  0  0  0
    2.9311   -0.8502    0.0000 C   0  0  0  0  0  0  0  0  0  0  0  0
    3.6034   -1.3284    0.0000 C   0  0  0  0  0  0  0  0  0  0  0  0
    3.5253   -2.1497    0.0000 C   0  0  0  0  0  0  0  0  0  0  0  0
    4.1976   -2.6279    0.0000 O   0  0  0  0  0  0  0  0  0  0  0  0
    4.9479   -2.2849    0.0000 C   0  0  0  0  0  0  0  0  0  0  0  0
    2.7750   -2.4928    0.0000 C   0  0  0  0  0  0  0  0  0  0  0  0
    2.1028   -2.0146    0.0000 C   0  0  0  0  0  0  0  0  0  0  0  0
  2  1  1  0  0  0  0
  3  2  1  0  0  0  0
  4  3  1  0  0  0  0
  5  4  1  0  0  0  0
  6  5  1  0  0  0  0
  6  1  1  0  0  0  0
  7  6  1  0  0  0  0
  7  8  1  0  0  0  0
  8  9  1  0  0  0  0
  8 10  1  0  0  0  0
 10 11  1  0  0  0  0
 11  1  1  0  0  0  0
 12  7  1  0  0  0  0
 13 12  1  0  0  0  0
 13 14  1  0  0  0  0
 14 15  2  0  0  0  0
 15 16  1  0  0  0  0
 16 17  1  0  0  0  0
 17 18  1  0  0  0  0
 16 19  2  0  0  0  0
 19 20  1  0  0  0  0
  1 20  1  0  0  0  0
 20 13  2  0  0  0  0
M  END
> <ChemID>
100075

> <CAS>
125-71-3

> <Original_SMILES>
CN1CC[C@@]23CCCC[C@@H]2[C@@H]1Cc1ccc(cc31)OC

> <preferred_name>
Dextromethorphan

> <dsstox_substance_id>
DTXSID3022908

> <dsstox_compound_id>
DTXCID202908

> <Canonical_QSARr>
COC1C=CC2CC3C4CCCCC4(CCN3C)C=2C=1

> <InChI_Code_QSARr>
InChI=1S/C18H25NO/c1-19-10-9-18-8-4-3-5-15(18)17(19)11-13-6-7-14(20-2)12-16(13)18/h6-7,12,15,17H,3-5,8-11H2,1-2H3

> <InChI Key_QSARr>
MKXZASYAUGDDCJ-UHFFFAOYSA-N

> <Salt_Solvent>


> <Salt_Solvent_ID>
0

> <RT>
11.81

$$$$
Row74
  Mrv171c012261910382D          

 35 38  0  0  0  0            999 V2000
    1.7620   -5.0121    0.0000 C   0  0  0  0  0  0  0  0  0  0  0  0
    1.7620   -4.1871    0.0000 C   0  0  0  0  0  0  0  0  0  0  0  0
    1.0476   -3.7746    0.0000 C   0  0  0  0  0  0  0  0  0  0  0  0
    1.0476   -2.9496    0.0000 C   0  0  0  0  0  0  0  0  0  0  0  0
    1.8726   -2.9496    0.0000 C   0  0  0  0  0  0  0  0  0  0  0  0
    2.2851   -3.6641    0.0000 C   0  0  0  0  0  0  0  0  0  0  0  0
    3.1101   -3.6641    0.0000 C   0  0  0  0  0  0  0  0  0  0  0  0
    3.5226   -2.9496    0.0000 N   0  0  0  0  0  0  0  0  0  0  0  0
    4.3476   -2.9496    0.0000 C   0  0  0  0  0  0  0  0  0  0  0  0
    4.7601   -2.2351    0.0000 C   0  0  0  0  0  0  0  0  0  0  0  0
    5.5851   -2.2351    0.0000 C   0  0  0  0  0  0  0  0  0  0  0  0
    5.9976   -1.5206    0.0000 C   0  0  0  0  0  0  0  0  0  0  0  0
    6.8226   -1.5206    0.0000 C   0  0  0  0  0  0  0  0  0  0  0  0
    7.2351   -2.2351    0.0000 C   0  0  0  0  0  0  0  0  0  0  0  0
    8.0601   -2.2351    0.0000 C   0  0  0  0  0  0  0  0  0  0  0  0
    8.4726   -1.5206    0.0000 C   0  0  0  0  0  0  0  0  0  0  0  0
    9.2976   -1.5206    0.0000 C   0  0  0  0  0  0  0  0  0  0  0  0
   10.1226   -1.5206    0.0000 C   0  0  0  0  0  0  0  0  0  0  0  0
    9.2976   -0.6956    0.0000 C   0  0  0  0  0  0  0  0  0  0  0  0
    9.2976   -2.3456    0.0000 C   0  0  0  0  0  0  0  0  0  0  0  0
    8.0601   -0.8062    0.0000 C   0  0  0  0  0  0  0  0  0  0  0  0
    7.2351   -0.8062    0.0000 C   0  0  0  0  0  0  0  0  0  0  0  0
    5.5851   -0.8062    0.0000 O   0  0  0  0  0  0  0  0  0  0  0  0
    3.1101   -2.2351    0.0000 C   0  0  0  0  0  0  0  0  0  0  0  0
    2.2851   -2.2351    0.0000 C   0  0  0  0  0  0  0  0  0  0  0  0
    0.2226   -2.9496    0.0000 C   0  0  0  0  0  0  0  0  0  0  0  0
   -0.1899   -2.2351    0.0000 C   0  0  0  0  0  0  0  0  0  0  0  0
   -1.0149   -2.2351    0.0000 C   0  0  0  0  0  0  0  0  0  0  0  0
   -1.4274   -2.9496    0.0000 C   0  0  0  0  0  0  0  0  0  0  0  0
   -1.0149   -3.6641    0.0000 C   0  0  0  0  0  0  0  0  0  0  0  0
   -0.1899   -3.6641    0.0000 C   0  0  0  0  0  0  0  0  0  0  0  0
    1.0476   -2.1246    0.0000 O   0  0  0  0  0  0  0  0  0  0  0  0
    0.3331   -4.1871    0.0000 C   0  0  0  0  0  0  0  0  0  0  0  0
    0.3331   -5.0121    0.0000 C   0  0  0  0  0  0  0  0  0  0  0  0
    1.0476   -5.4246    0.0000 C   0  0  0  0  0  0  0  0  0  0  0  0
  2  1  1  0  0  0  0
  3  2  2  0  0  0  0
  3  4  1  0  0  0  0
  4  5  1  0  0  0  0
  6  5  1  0  0  0  0
  7  6  1  0  0  0  0
  8  7  1  0  0  0  0
  8  9  1  0  0  0  0
  9 10  1  0  0  0  0
 10 11  1  0  0  0  0
 11 12  1  0  0  0  0
 12 13  1  0  0  0  0
 14 13  1  0  0  0  0
 15 14  2  0  0  0  0
 16 15  1  0  0  0  0
 16 17  1  0  0  0  0
 17 18  1  0  0  0  0
 17 19  1  0  0  0  0
 17 20  1  0  0  0  0
 21 16  2  0  0  0  0
 22 21  1  0  0  0  0
 13 22  2  0  0  0  0
 12 23  1  0  0  0  0
 24  8  1  0  0  0  0
 25 24  1  0  0  0  0
  5 25  1  0  0  0  0
  4 26  1  0  0  0  0
 27 26  1  0  0  0  0
 28 27  2  0  0  0  0
 29 28  1  0  0  0  0
 30 29  2  0  0  0  0
 31 30  1  0  0  0  0
 26 31  2  0  0  0  0
  4 32  1  0  0  0  0
 33  3  1  0  0  0  0
 34 33  2  0  0  0  0
 35 34  1  0  0  0  0
  1 35  2  0  0  0  0
M  END
> <ChemID>
100076

> <CAS>
50679-08-8

> <Original_SMILES>
CC(C)(C)c1ccc(cc1)C(O)CCCN1CCC(CC1)C(O)(c1ccccc1)c1ccccc1

> <preferred_name>
Terfenadine

> <dsstox_substance_id>
DTXSID2023642

> <dsstox_compound_id>
DTXCID503642

> <Canonical_QSARr>
CC(C)(C)C1C=CC(=CC=1)C(O)CCCN1CCC(CC1)C(O)(C1C=CC=CC=1)C1C=CC=CC=1

> <InChI_Code_QSARr>
InChI=1S/C32H41NO2/c1-31(2,3)26-18-16-25(17-19-26)30(34)15-10-22-33-23-20-29(21-24-33)32(35,27-11-6-4-7-12-27)28-13-8-5-9-14-28/h4-9,11-14,16-19,29-30,34-35H,10,15,20-24H2,1-3H3

> <InChI Key_QSARr>
GUGOEEXESWIERI-UHFFFAOYSA-N

> <Salt_Solvent>


> <Salt_Solvent_ID>
0

> <RT>
23.36

$$$$
Row75
  Mrv171c012261910382D          

 11 11  0  0  0  0            999 V2000
    1.6185   -2.2199    0.0000 C   0  0  0  0  0  0  0  0  0  0  0  0
    1.6185   -3.0449    0.0000 C   0  0  0  0  0  0  0  0  0  0  0  0
    0.9041   -1.8074    0.0000 O   0  0  0  0  0  0  0  0  0  0  0  0
    2.3330   -1.8074    0.0000 N   0  0  0  0  0  0  0  0  0  0  0  0
    2.3330   -0.9824    0.0000 C   0  0  0  0  0  0  0  0  0  0  0  0
    3.0475   -0.5699    0.0000 C   0  0  0  0  0  0  0  0  0  0  0  0
    3.0475    0.2551    0.0000 C   0  0  0  0  0  0  0  0  0  0  0  0
    2.3330    0.6676    0.0000 C   0  0  0  0  0  0  0  0  0  0  0  0
    2.3330    1.4926    0.0000 O   0  0  0  0  0  0  0  0  0  0  0  0
    1.6185    0.2551    0.0000 C   0  0  0  0  0  0  0  0  0  0  0  0
    1.6185   -0.5699    0.0000 C   0  0  0  0  0  0  0  0  0  0  0  0
  1  2  1  0  0  0  0
  1  3  2  0  0  0  0
  1  4  1  0  0  0  0
  4  5  1  0  0  0  0
  6  5  1  0  0  0  0
  7  6  2  0  0  0  0
  8  7  1  0  0  0  0
  8  9  1  0  0  0  0
 10  8  2  0  0  0  0
 11 10  1  0  0  0  0
  5 11  2  0  0  0  0
M  END
> <ChemID>
100077

> <CAS>
103-90-2

> <Original_SMILES>
CC(=O)Nc1ccc(O)cc1

> <preferred_name>
Acetaminophen

> <dsstox_substance_id>
DTXSID2020006

> <dsstox_compound_id>
DTXCID606

> <Canonical_QSARr>
CC(=O)NC1C=CC(O)=CC=1

> <InChI_Code_QSARr>
InChI=1S/C8H9NO2/c1-6(10)9-7-2-4-8(11)5-3-7/h2-5,11H,1H3,(H,9,10)

> <InChI Key_QSARr>
RZVAJINKPMORJF-UHFFFAOYSA-N

> <Salt_Solvent>


> <Salt_Solvent_ID>
0

> <RT>
1.14

$$$$
Row76
  Mrv171c012261910382D          

 19 22  0  0  0  0            999 V2000
    1.5936   -2.9357    0.0000 C   0  0  0  0  0  0  0  0  0  0  0  0
    2.3289   -3.3098    0.0000 C   0  0  0  0  0  0  0  0  0  0  0  0
    3.2528   -2.8821    0.0000 C   0  0  0  0  0  0  0  0  0  0  0  0
    2.9768   -2.0362    0.0000 C   0  0  0  0  0  0  0  0  0  0  0  0
    2.2194   -1.8944    0.0000 C   0  0  0  0  0  0  0  0  0  0  0  0
    1.5499   -2.1119    0.0000 C   0  0  0  0  0  0  0  0  0  0  0  0
    0.9606   -0.8749    0.0000 C   0  0  0  0  0  0  0  0  0  0  0  0
    0.3247   -1.4005    0.0000 N   0  0  0  0  0  0  0  0  0  0  0  0
   -0.4042   -1.0141    0.0000 C   0  0  0  0  0  0  0  0  0  0  0  0
    0.2467   -2.2218    0.0000 C   0  0  0  0  0  0  0  0  0  0  0  0
    0.7723   -2.8577    0.0000 C   0  0  0  0  0  0  0  0  0  0  0  0
    1.7819   -0.9529    0.0000 C   0  0  0  0  0  0  0  0  0  0  0  0
    2.3075   -1.5889    0.0000 C   0  0  0  0  0  0  0  0  0  0  0  0
    3.0578   -1.2458    0.0000 C   0  0  0  0  0  0  0  0  0  0  0  0
    3.7300   -1.7240    0.0000 C   0  0  0  0  0  0  0  0  0  0  0  0
    3.6520   -2.5453    0.0000 C   0  0  0  0  0  0  0  0  0  0  0  0
    4.3243   -3.0235    0.0000 O   0  0  0  0  0  0  0  0  0  0  0  0
    2.9017   -2.8884    0.0000 C   0  0  0  0  0  0  0  0  0  0  0  0
    2.2295   -2.4102    0.0000 C   0  0  0  0  0  0  0  0  0  0  0  0
  2  1  1  0  0  0  0
  3  2  1  0  0  0  0
  4  3  1  0  0  0  0
  5  4  1  0  0  0  0
  6  5  1  0  0  0  0
  6  1  1  0  0  0  0
  7  6  1  0  0  0  0
  7  8  1  0  0  0  0
  8  9  1  0  0  0  0
  8 10  1  0  0  0  0
 10 11  1  0  0  0  0
 11  1  1  0  0  0  0
 12  7  1  0  0  0  0
 13 12  1  0  0  0  0
 13 14  1  0  0  0  0
 14 15  2  0  0  0  0
 15 16  1  0  0  0  0
 16 17  1  0  0  0  0
 16 18  2  0  0  0  0
 18 19  1  0  0  0  0
  1 19  1  0  0  0  0
 19 13  2  0  0  0  0
M  END
> <ChemID>
100078

> <CAS>
77-07-6

> <Original_SMILES>
CN1CC[C@]23CCCC[C@H]2[C@H]1Cc1ccc(O)cc31

> <preferred_name>
Levorphanol

> <dsstox_substance_id>
DTXSID3023213

> <dsstox_compound_id>
DTXCID203213

> <Canonical_QSARr>
CN1CCC23CCCCC2C1CC1C=CC(O)=CC3=1

> <InChI_Code_QSARr>
InChI=1S/C17H23NO/c1-18-9-8-17-7-3-2-4-14(17)16(18)10-12-5-6-13(19)11-15(12)17/h5-6,11,14,16,19H,2-4,7-10H2,1H3

> <InChI Key_QSARr>
JAQUASYNZVUNQP-UHFFFAOYSA-N

> <Salt_Solvent>


> <Salt_Solvent_ID>
0

> <RT>
4.53

$$$$
Row77
  Mrv171c012261910382D          

 36 39  0  0  0  0            999 V2000
    1.6134   -5.6652    0.0000 C   0  0  0  0  0  0  0  0  0  0  0  0
    0.7884   -5.6652    0.0000 C   0  0  0  0  0  0  0  0  0  0  0  0
    0.7884   -4.8402    0.0000 C   0  0  0  0  0  0  0  0  0  0  0  0
    1.5029   -4.4277    0.0000 C   0  0  0  0  0  0  0  0  0  0  0  0
    1.5029   -3.6027    0.0000 C   0  0  0  0  0  0  0  0  0  0  0  0
    0.7884   -3.1902    0.0000 C   0  0  0  0  0  0  0  0  0  0  0  0
    0.7884   -2.3652    0.0000 C   0  0  0  0  0  0  0  0  0  0  0  0
    0.0740   -1.9527    0.0000 C   0  0  0  0  0  0  0  0  0  0  0  0
    0.0740   -1.1277    0.0000 C   0  0  0  0  0  0  0  0  0  0  0  0
   -0.6405   -0.7152    0.0000 C   0  0  0  0  0  0  0  0  0  0  0  0
   -0.6405    0.1098    0.0000 N   0  0  0  0  0  0  0  0  0  0  0  0
    0.0740    0.5223    0.0000 C   0  0  0  0  0  0  0  0  0  0  0  0
    0.0740    1.3473    0.0000 C   0  0  0  0  0  0  0  0  0  0  0  0
   -0.6405    1.7598    0.0000 C   0  0  0  0  0  0  0  0  0  0  0  0
   -0.6405    2.5848    0.0000 C   0  0  0  0  0  0  0  0  0  0  0  0
   -0.6405    3.4098    0.0000 C   0  0  0  0  0  0  0  0  0  0  0  0
    0.0740    3.8223    0.0000 C   0  0  0  0  0  0  0  0  0  0  0  0
    0.0740    4.6473    0.0000 C   0  0  0  0  0  0  0  0  0  0  0  0
   -0.6405    5.0598    0.0000 C   0  0  0  0  0  0  0  0  0  0  0  0
   -1.3550    4.6473    0.0000 C   0  0  0  0  0  0  0  0  0  0  0  0
   -1.3550    3.8223    0.0000 C   0  0  0  0  0  0  0  0  0  0  0  0
   -1.4655    2.5848    0.0000 C   0  0  0  0  0  0  0  0  0  0  0  0
   -1.8780    3.2993    0.0000 C   0  0  0  0  0  0  0  0  0  0  0  0
   -2.7030    3.2993    0.0000 C   0  0  0  0  0  0  0  0  0  0  0  0
   -3.1155    2.5848    0.0000 C   0  0  0  0  0  0  0  0  0  0  0  0
   -2.7030    1.8703    0.0000 C   0  0  0  0  0  0  0  0  0  0  0  0
   -1.8780    1.8703    0.0000 C   0  0  0  0  0  0  0  0  0  0  0  0
    0.1845    2.5848    0.0000 O   0  0  0  0  0  0  0  0  0  0  0  0
   -1.3550    1.3473    0.0000 C   0  0  0  0  0  0  0  0  0  0  0  0
   -1.3550    0.5223    0.0000 C   0  0  0  0  0  0  0  0  0  0  0  0
    1.5029   -1.9527    0.0000 O   0  0  0  0  0  0  0  0  0  0  0  0
    0.0740   -3.6027    0.0000 C   0  0  0  0  0  0  0  0  0  0  0  0
    0.0740   -4.4277    0.0000 C   0  0  0  0  0  0  0  0  0  0  0  0
    0.7884   -6.4902    0.0000 C   0  0  0  0  0  0  0  0  0  0  0  0
    1.5029   -6.9027    0.0000 O   0  0  0  0  0  0  0  0  0  0  0  0
   -0.0366   -5.6652    0.0000 C   0  0  0  0  0  0  0  0  0  0  0  0
  1  2  1  0  0  0  0
  2  3  1  0  0  0  0
  4  3  2  0  0  0  0
  5  4  1  0  0  0  0
  6  5  2  0  0  0  0
  6  7  1  0  0  0  0
  7  8  1  0  0  0  0
  8  9  1  0  0  0  0
  9 10  1  0  0  0  0
 10 11  1  0  0  0  0
 12 11  1  0  0  0  0
 13 12  1  0  0  0  0
 14 13  1  0  0  0  0
 14 15  1  0  0  0  0
 15 16  1  0  0  0  0
 17 16  2  0  0  0  0
 18 17  1  0  0  0  0
 19 18  2  0  0  0  0
 20 19  1  0  0  0  0
 21 20  2  0  0  0  0
 16 21  1  0  0  0  0
 15 22  1  0  0  0  0
 23 22  2  0  0  0  0
 24 23  1  0  0  0  0
 25 24  2  0  0  0  0
 26 25  1  0  0  0  0
 27 26  2  0  0  0  0
 22 27  1  0  0  0  0
 15 28  1  0  0  0  0
 29 14  1  0  0  0  0
 30 29  1  0  0  0  0
 11 30  1  0  0  0  0
  7 31  1  0  0  0  0
 32  6  1  0  0  0  0
 33 32  2  0  0  0  0
  3 33  1  0  0  0  0
  2 34  1  0  0  0  0
 34 35  1  0  0  0  0
  2 36  1  0  0  0  0
M  END
> <ChemID>
100079

> <CAS>
NOCAS_892270

> <Original_SMILES>
CC(C)(CO)c1ccc(cc1)C(O)CCCN1CCC(CC1)C(O)(c1ccccc1)c1ccccc1

> <preferred_name>
4-{4-[hydroxy(diphenyl)methyl]piperidin-1-yl}-1-[4-(1-hydroxy-2-methylpropan-2-yl)phenyl]butan-1-ol

> <dsstox_substance_id>
DTXSID50892270

> <dsstox_compound_id>
DTXCID701079376

> <Canonical_QSARr>
CC(C)(CO)C1C=CC(=CC=1)C(O)CCCN1CCC(CC1)C(O)(C1C=CC=CC=1)C1C=CC=CC=1

> <InChI_Code_QSARr>
InChI=1S/C32H41NO3/c1-31(2,24-34)26-17-15-25(16-18-26)30(35)14-9-21-33-22-19-29(20-23-33)32(36,27-10-5-3-6-11-27)28-12-7-4-8-13-28/h3-8,10-13,15-18,29-30,34-36H,9,14,19-24H2,1-2H3

> <InChI Key_QSARr>
ZIQKFOOBIMENJF-UHFFFAOYSA-N

> <Salt_Solvent>


> <Salt_Solvent_ID>
0

> <RT>
17.48

$$$$
Row78
  Mrv171c012261910382D          

 16 17  0  0  0  0            999 V2000
    1.2851   -1.3903    0.0000 O   0  0  0  0  0  0  0  0  0  0  0  0
    1.9996   -0.9778    0.0000 C   0  0  0  0  0  0  0  0  0  0  0  0
    2.7140   -1.3903    0.0000 O   0  0  0  0  0  0  0  0  0  0  0  0
    2.7140   -2.2153    0.0000 C   0  0  0  0  0  0  0  0  0  0  0  0
    1.9996   -2.6278    0.0000 C   0  0  0  0  0  0  0  0  0  0  0  0
    1.2149   -2.3728    0.0000 O   0  0  0  0  0  0  0  0  0  0  0  0
    0.7300   -3.0403    0.0000 C   0  0  0  0  0  0  0  0  0  0  0  0
    0.1169   -2.4882    0.0000 C   0  0  0  0  0  0  0  0  0  0  0  0
    0.1169   -3.5923    0.0000 C   0  0  0  0  0  0  0  0  0  0  0  0
    1.2149   -3.7077    0.0000 C   0  0  0  0  0  0  0  0  0  0  0  0
    1.9996   -3.4528    0.0000 C   0  0  0  0  0  0  0  0  0  0  0  0
    2.7140   -3.8653    0.0000 C   0  0  0  0  0  0  0  0  0  0  0  0
    3.4285   -3.4528    0.0000 C   0  0  0  0  0  0  0  0  0  0  0  0
    3.4285   -2.6278    0.0000 C   0  0  0  0  0  0  0  0  0  0  0  0
    1.9996   -0.1528    0.0000 N   0  0  0  0  0  0  0  0  0  0  0  0
    1.2851    0.2597    0.0000 C   0  0  0  0  0  0  0  0  0  0  0  0
  1  2  2  0  0  0  0
  2  3  1  0  0  0  0
  3  4  1  0  0  0  0
  5  4  1  0  0  0  0
  5  6  1  0  0  0  0
  6  7  1  0  0  0  0
  7  8  1  0  0  0  0
  7  9  1  0  0  0  0
  7 10  1  0  0  0  0
 10 11  1  0  0  0  0
 11  5  2  0  0  0  0
 12 11  1  0  0  0  0
 13 12  2  0  0  0  0
 14 13  1  0  0  0  0
  4 14  2  0  0  0  0
  2 15  1  0  0  0  0
 15 16  1  0  0  0  0
M  END
> <ChemID>
100080

> <CAS>
1563-66-2

> <Original_SMILES>
CC1(C)Cc2cccc(OC(=O)NC)c2O1

> <preferred_name>
Carbofuran

> <dsstox_substance_id>
DTXSID9020249

> <dsstox_compound_id>
DTXCID70249

> <Canonical_QSARr>
CNC(=O)OC1=CC=CC2CC(C)(C)OC1=2

> <InChI_Code_QSARr>
InChI=1S/C12H15NO3/c1-12(2)7-8-5-4-6-9(10(8)16-12)15-11(14)13-3/h4-6H,7H2,1-3H3,(H,13,14)

> <InChI Key_QSARr>
DUEPRVBVGDRKAG-UHFFFAOYSA-N

> <Salt_Solvent>


> <Salt_Solvent_ID>
0

> <RT>
10.13

$$$$
Row79
  Mrv171c012261910382D          

 14 13  0  0  0  0            999 V2000
    2.3737   -2.0958    0.0000 O   0  0  0  0  0  0  0  0  0  0  0  0
    3.1987   -2.0958    0.0000 P   0  0  0  0  0  0  0  0  0  0  0  0
    3.1987   -2.9208    0.0000 O   0  0  0  0  0  0  0  0  0  0  0  0
    2.4842   -3.3333    0.0000 C   0  0  0  0  0  0  0  0  0  0  0  0
    1.7697   -2.9208    0.0000 C   0  0  0  0  0  0  0  0  0  0  0  0
    1.0553   -3.3333    0.0000 Cl  0  0  0  0  0  0  0  0  0  0  0  0
    3.1987   -1.2708    0.0000 O   0  0  0  0  0  0  0  0  0  0  0  0
    2.4842   -0.8583    0.0000 C   0  0  0  0  0  0  0  0  0  0  0  0
    2.4842   -0.0333    0.0000 C   0  0  0  0  0  0  0  0  0  0  0  0
    1.7697    0.3792    0.0000 Cl  0  0  0  0  0  0  0  0  0  0  0  0
    4.0237   -2.0958    0.0000 O   0  0  0  0  0  0  0  0  0  0  0  0
    4.4362   -2.8102    0.0000 C   0  0  0  0  0  0  0  0  0  0  0  0
    4.0237   -3.5247    0.0000 C   0  0  0  0  0  0  0  0  0  0  0  0
    3.1987   -3.5247    0.0000 Cl  0  0  0  0  0  0  0  0  0  0  0  0
  1  2  2  0  0  0  0
  2  3  1  0  0  0  0
  3  4  1  0  0  0  0
  4  5  1  0  0  0  0
  5  6  1  0  0  0  0
  2  7  1  0  0  0  0
  7  8  1  0  0  0  0
  8  9  1  0  0  0  0
  9 10  1  0  0  0  0
  2 11  1  0  0  0  0
 11 12  1  0  0  0  0
 12 13  1  0  0  0  0
 13 14  1  0  0  0  0
M  END
> <ChemID>
100081

> <CAS>
115-96-8

> <Original_SMILES>
O=P(OCCCl)(OCCCl)OCCCl

> <preferred_name>
Tris(2-chloroethyl) phosphate

> <dsstox_substance_id>
DTXSID5021411

> <dsstox_compound_id>
DTXCID601411

> <Canonical_QSARr>
O=P(OCCCl)(OCCCl)OCCCl

> <InChI_Code_QSARr>
InChI=1S/C6H12Cl3O4P/c7-1-4-11-14(10,12-5-2-8)13-6-3-9/h1-6H2

> <InChI Key_QSARr>
HQUQLFOMPYWACS-UHFFFAOYSA-N

> <Salt_Solvent>


> <Salt_Solvent_ID>
0

> <RT>
9.909

$$$$
Row80
  Mrv171c012261910382D          

 21 23  0  0  0  0            999 V2000
    6.3569    1.1104    0.0000 O   0  0  0  0  0  0  0  0  0  0  0  0
    5.6424    0.6979    0.0000 C   0  0  0  0  0  0  0  0  0  0  0  0
    4.9279    1.1104    0.0000 C   0  0  0  0  0  0  0  0  0  0  0  0
    4.2135    0.6979    0.0000 C   0  0  0  0  0  0  0  0  0  0  0  0
    3.4990    1.1104    0.0000 C   0  0  0  0  0  0  0  0  0  0  0  0
    2.7845    0.6979    0.0000 C   0  0  0  0  0  0  0  0  0  0  0  0
    2.0701    1.1104    0.0000 C   0  0  0  0  0  0  0  0  0  0  0  0
    1.3556    0.6979    0.0000 C   0  0  0  0  0  0  0  0  0  0  0  0
    0.6411    1.1104    0.0000 C   0  0  0  0  0  0  0  0  0  0  0  0
   -0.1435    0.8555    0.0000 O   0  0  0  0  0  0  0  0  0  0  0  0
   -0.6284    1.5229    0.0000 C   0  0  0  0  0  0  0  0  0  0  0  0
   -0.1435    2.1904    0.0000 O   0  0  0  0  0  0  0  0  0  0  0  0
    0.6411    1.9354    0.0000 C   0  0  0  0  0  0  0  0  0  0  0  0
    1.3556    2.3479    0.0000 C   0  0  0  0  0  0  0  0  0  0  0  0
    2.0701    1.9354    0.0000 C   0  0  0  0  0  0  0  0  0  0  0  0
    5.6424   -0.1271    0.0000 N   0  0  0  0  0  0  0  0  0  0  0  0
    6.3569   -0.5396    0.0000 C   0  0  0  0  0  0  0  0  0  0  0  0
    6.3569   -1.3646    0.0000 C   0  0  0  0  0  0  0  0  0  0  0  0
    5.6424   -1.7771    0.0000 C   0  0  0  0  0  0  0  0  0  0  0  0
    4.9279   -1.3646    0.0000 C   0  0  0  0  0  0  0  0  0  0  0  0
    4.9279   -0.5396    0.0000 C   0  0  0  0  0  0  0  0  0  0  0  0
  1  2  2  0  0  0  0
  3  2  1  4  0  0  0
  3  4  2  0  0  0  0
  5  4  1  4  0  0  0
  5  6  2  0  0  0  0
  6  7  1  0  0  0  0
  7  8  1  0  0  0  0
  8  9  2  0  0  0  0
  9 10  1  0  0  0  0
 10 11  1  0  0  0  0
 11 12  1  0  0  0  0
 12 13  1  0  0  0  0
  9 13  1  0  0  0  0
 13 14  2  0  0  0  0
 14 15  1  0  0  0  0
  7 15  2  0  0  0  0
  2 16  1  0  0  0  0
 16 17  1  0  0  0  0
 17 18  1  0  0  0  0
 18 19  1  0  0  0  0
 19 20  1  0  0  0  0
 20 21  1  0  0  0  0
 16 21  1  0  0  0  0
M  END
> <ChemID>
100082

> <CAS>
94-62-2

> <Original_SMILES>
O=C(/C=C/C=C/c1cc2OCOc2cc1)N1CCCCC1

> <preferred_name>
Piperine

> <dsstox_substance_id>
DTXSID3021805

> <dsstox_compound_id>
DTXCID701805

> <Canonical_QSARr>
O=C(C=CC=CC1C=C2OCOC2=CC=1)N1CCCCC1

> <InChI_Code_QSARr>
InChI=1S/C17H19NO3/c19-17(18-10-4-1-5-11-18)7-3-2-6-14-8-9-15-16(12-14)21-13-20-15/h2-3,6-9,12H,1,4-5,10-11,13H2

> <InChI Key_QSARr>
MXXWOMGUGJBKIW-UHFFFAOYSA-N

> <Salt_Solvent>


> <Salt_Solvent_ID>
0

> <RT>
19.355

$$$$
Row81
  Mrv171c012261910382D          

 25 28  0  0  0  0            999 V2000
    4.4404   -2.0564    0.0000 C   0  0  0  0  0  0  0  0  0  0  0  0
    4.8002   -1.3140    0.0000 C   0  0  0  0  0  0  0  0  0  0  0  0
    5.2649   -2.0832    0.0000 C   0  0  0  0  0  0  0  0  0  0  0  0
    5.7713   -1.4318    0.0000 C   0  0  0  0  0  0  0  0  0  0  0  0
    6.5885   -1.5447    0.0000 C   0  0  0  0  0  0  0  0  0  0  0  0
    7.0949   -0.8934    0.0000 O   0  0  0  0  0  0  0  0  0  0  0  0
    5.4604   -0.6677    0.0000 O   0  0  0  0  0  0  0  0  0  0  0  0
    5.4942   -2.8757    0.0000 C   0  0  0  0  0  0  0  0  0  0  0  0
    4.8114   -3.3386    0.0000 C   0  0  0  0  0  0  0  0  0  0  0  0
    4.1601   -2.8323    0.0000 C   0  0  0  0  0  0  0  0  0  0  0  0
    3.3480   -2.9775    0.0000 C   0  0  0  0  0  0  0  0  0  0  0  0
    2.8161   -2.3468    0.0000 C   0  0  0  0  0  0  0  0  0  0  0  0
    2.0040   -2.4920    0.0000 C   0  0  0  0  0  0  0  0  0  0  0  0
    2.2843   -1.7161    0.0000 C   0  0  0  0  0  0  0  0  0  0  0  0
    1.4722   -1.8613    0.0000 C   0  0  0  0  0  0  0  0  0  0  0  0
    0.6601   -2.0065    0.0000 C   0  0  0  0  0  0  0  0  0  0  0  0
    0.3798   -2.7824    0.0000 C   0  0  0  0  0  0  0  0  0  0  0  0
   -0.4323   -2.9276    0.0000 O   0  0  0  0  0  0  0  0  0  0  0  0
    0.9116   -3.4131    0.0000 C   0  0  0  0  0  0  0  0  0  0  0  0
    1.7237   -3.2679    0.0000 C   0  0  0  0  0  0  0  0  0  0  0  0
    2.2555   -3.8986    0.0000 C   0  0  0  0  0  0  0  0  0  0  0  0
    3.0677   -3.7534    0.0000 C   0  0  0  0  0  0  0  0  0  0  0  0
    3.0964   -1.5709    0.0000 C   0  0  0  0  0  0  0  0  0  0  0  0
    2.5646   -0.9402    0.0000 O   0  0  0  0  0  0  0  0  0  0  0  0
    3.9086   -1.4256    0.0000 C   0  0  0  0  0  0  0  0  0  0  0  0
  1  2  1  0  0  0  0
  3  1  1  0  0  0  0
  3  4  1  0  0  0  0
  4  5  1  0  0  0  0
  5  6  1  0  0  0  0
  4  7  2  0  0  0  0
  8  3  1  0  0  0  0
  9  8  1  0  0  0  0
 10  9  1  0  0  0  0
 10  1  1  0  0  0  0
 11 10  1  0  0  0  0
 11 12  1  0  0  0  0
 12 13  1  0  0  0  0
 13 14  1  0  0  0  0
 15 13  1  0  0  0  0
 16 15  1  0  0  0  0
 17 16  1  0  0  0  0
 17 18  2  0  0  0  0
 19 17  1  0  0  0  0
 20 19  2  0  0  0  0
 13 20  1  0  0  0  0
 20 21  1  0  0  0  0
 21 22  1  0  0  0  0
 22 11  1  0  0  0  0
 23 12  1  0  0  0  0
 23 24  1  0  0  0  0
 25 23  1  0  0  0  0
  1 25  1  0  0  0  0
M  END
> <ChemID>
100083

> <CAS>
50-22-6

> <Original_SMILES>
C[C@]12CCC(=O)C=C1CC[C@@H]1[C@@H]2[C@@H](O)C[C@]2(C)[C@H](CC[C@H]21)C(=O)CO

> <preferred_name>
Corticosterone

> <dsstox_substance_id>
DTXSID6022474

> <dsstox_compound_id>
DTXCID702474

> <Canonical_QSARr>
CC12CCC(=O)C=C1CCC1C2C(O)CC2(C)C(CCC21)C(=O)CO

> <InChI_Code_QSARr>
InChI=1S/C21H30O4/c1-20-8-7-13(23)9-12(20)3-4-14-15-5-6-16(18(25)11-22)21(15,2)10-17(24)19(14)20/h9,14-17,19,22,24H,3-8,10-11H2,1-2H3

> <InChI Key_QSARr>
OMFXVFTZEKFJBZ-UHFFFAOYSA-N

> <Salt_Solvent>


> <Salt_Solvent_ID>
0

> <RT>
15.412

$$$$
Row82
  Mrv171c012261910382D          

 22 24  0  0  0  0            999 V2000
    3.0253   -4.4858    0.0000 C   0  0  0  0  0  0  0  0  0  0  0  0
    3.8503   -4.4858    0.0000 O   0  0  0  0  0  0  0  0  0  0  0  0
    4.1052   -3.7012    0.0000 C   0  0  0  0  0  0  0  0  0  0  0  0
    3.4378   -3.2163    0.0000 C   0  0  0  0  0  0  0  0  0  0  0  0
    3.4378   -2.3913    0.0000 C   0  0  0  0  0  0  0  0  0  0  0  0
    4.1522   -1.9788    0.0000 C   0  0  0  0  0  0  0  0  0  0  0  0
    4.1522   -1.1538    0.0000 C   0  0  0  0  0  0  0  0  0  0  0  0
    3.4378   -0.7413    0.0000 C   0  0  0  0  0  0  0  0  0  0  0  0
    3.4378    0.0837    0.0000 S   0  0  0  0  0  0  0  0  0  0  0  0
    3.4378    0.9087    0.0000 C   0  0  0  0  0  0  0  0  0  0  0  0
    2.6128    0.0837    0.0000 O   0  0  0  0  0  0  0  0  0  0  0  0
    4.2628    0.0837    0.0000 O   0  0  0  0  0  0  0  0  0  0  0  0
    2.7233   -1.1538    0.0000 C   0  0  0  0  0  0  0  0  0  0  0  0
    2.7233   -1.9788    0.0000 C   0  0  0  0  0  0  0  0  0  0  0  0
    2.7703   -3.7012    0.0000 C   0  0  0  0  0  0  0  0  0  0  0  0
    1.9857   -3.4463    0.0000 C   0  0  0  0  0  0  0  0  0  0  0  0
    1.8142   -2.6393    0.0000 C   0  0  0  0  0  0  0  0  0  0  0  0
    1.0295   -2.3844    0.0000 C   0  0  0  0  0  0  0  0  0  0  0  0
    0.4165   -2.9364    0.0000 C   0  0  0  0  0  0  0  0  0  0  0  0
    0.5880   -3.7434    0.0000 C   0  0  0  0  0  0  0  0  0  0  0  0
    1.3726   -3.9983    0.0000 C   0  0  0  0  0  0  0  0  0  0  0  0
    2.5403   -5.1533    0.0000 O   0  0  0  0  0  0  0  0  0  0  0  0
  2  1  1  0  0  0  0
  3  2  1  0  0  0  0
  4  3  1  0  0  0  0
  4  5  1  0  0  0  0
  6  5  2  0  0  0  0
  7  6  1  0  0  0  0
  8  7  2  0  0  0  0
  8  9  1  0  0  0  0
  9 10  1  0  0  0  0
  9 11  2  0  0  0  0
  9 12  2  0  0  0  0
 13  8  1  0  0  0  0
 14 13  2  0  0  0  0
  5 14  1  0  0  0  0
 15  4  2  0  0  0  0
  1 15  1  0  0  0  0
 15 16  1  0  0  0  0
 17 16  1  0  0  0  0
 18 17  2  0  0  0  0
 19 18  1  0  0  0  0
 20 19  2  0  0  0  0
 21 20  1  0  0  0  0
 16 21  2  0  0  0  0
  1 22  2  0  0  0  0
M  END
> <ChemID>
100084

> <CAS>
162011-90-7

> <Original_SMILES>
CS(=O)(=O)c1ccc(cc1)C1COC(=O)C=1c1ccccc1

> <preferred_name>
Rofecoxib

> <dsstox_substance_id>
DTXSID2023567

> <dsstox_compound_id>
DTXCID903567

> <Canonical_QSARr>
CS(=O)(=O)C1C=CC(=CC=1)C1COC(=O)C=1C1C=CC=CC=1

> <InChI_Code_QSARr>
InChI=1S/C17H14O4S/c1-22(19,20)14-9-7-12(8-10-14)15-11-21-17(18)16(15)13-5-3-2-4-6-13/h2-10H,11H2,1H3

> <InChI Key_QSARr>
RZJQGNCSTQAWON-UHFFFAOYSA-N

> <Salt_Solvent>


> <Salt_Solvent_ID>
0

> <RT>
9.157

$$$$
Row83
  Mrv171c012261910382D          

 20 19  0  0  0  0            999 V2000
    4.5936   -3.9095    0.0000 O   0  0  0  0  0  0  0  0  0  0  0  0
    4.1811   -4.6240    0.0000 P   0  0  0  0  0  0  0  0  0  0  0  0
    3.4667   -4.2115    0.0000 O   0  0  0  0  0  0  0  0  0  0  0  0
    3.4667   -3.3865    0.0000 C   0  0  0  0  0  0  0  0  0  0  0  0
    4.1811   -2.9740    0.0000 C   0  0  0  0  0  0  0  0  0  0  0  0
    4.1811   -2.1490    0.0000 Cl  0  0  0  0  0  0  0  0  0  0  0  0
    2.7522   -2.9740    0.0000 C   0  0  0  0  0  0  0  0  0  0  0  0
    2.7522   -2.1490    0.0000 Cl  0  0  0  0  0  0  0  0  0  0  0  0
    4.8956   -5.0365    0.0000 O   0  0  0  0  0  0  0  0  0  0  0  0
    5.6101   -4.6240    0.0000 C   0  0  0  0  0  0  0  0  0  0  0  0
    6.3245   -5.0365    0.0000 C   0  0  0  0  0  0  0  0  0  0  0  0
    7.0390   -4.6240    0.0000 Cl  0  0  0  0  0  0  0  0  0  0  0  0
    5.6101   -3.7990    0.0000 C   0  0  0  0  0  0  0  0  0  0  0  0
    6.3245   -3.3865    0.0000 Cl  0  0  0  0  0  0  0  0  0  0  0  0
    3.7686   -5.3385    0.0000 O   0  0  0  0  0  0  0  0  0  0  0  0
    2.9436   -5.3385    0.0000 C   0  0  0  0  0  0  0  0  0  0  0  0
    2.5311   -4.6240    0.0000 C   0  0  0  0  0  0  0  0  0  0  0  0
    2.9436   -3.9095    0.0000 Cl  0  0  0  0  0  0  0  0  0  0  0  0
    2.5311   -6.0530    0.0000 C   0  0  0  0  0  0  0  0  0  0  0  0
    1.7061   -6.0530    0.0000 Cl  0  0  0  0  0  0  0  0  0  0  0  0
  1  2  2  0  0  0  0
  2  3  1  0  0  0  0
  3  4  1  0  0  0  0
  4  5  1  0  0  0  0
  5  6  1  0  0  0  0
  4  7  1  0  0  0  0
  7  8  1  0  0  0  0
  2  9  1  0  0  0  0
  9 10  1  0  0  0  0
 10 11  1  0  0  0  0
 11 12  1  0  0  0  0
 10 13  1  0  0  0  0
 13 14  1  0  0  0  0
  2 15  1  0  0  0  0
 15 16  1  0  0  0  0
 16 17  1  0  0  0  0
 17 18  1  0  0  0  0
 16 19  1  0  0  0  0
 19 20  1  0  0  0  0
M  END
> <ChemID>
100085

> <CAS>
13674-87-8

> <Original_SMILES>
O=P(OC(CCl)CCl)(OC(CCl)CCl)OC(CCl)CCl

> <preferred_name>
Tris(1,3-dichloro-2-propyl) phosphate

> <dsstox_substance_id>
DTXSID9026261

> <dsstox_compound_id>
DTXCID206261

> <Canonical_QSARr>
O=P(OC(CCl)CCl)(OC(CCl)CCl)OC(CCl)CCl

> <InChI_Code_QSARr>
InChI=1S/C9H15Cl6O4P/c10-1-7(2-11)17-20(16,18-8(3-12)4-13)19-9(5-14)6-15/h7-9H,1-6H2

> <InChI Key_QSARr>
ASLWPAWFJZFCKF-UHFFFAOYSA-N

> <Salt_Solvent>


> <Salt_Solvent_ID>
0

> <RT>
23.443

$$$$
Row84
  Mrv171c012261910382D          

 17 16  0  0  0  0            999 V2000
    0.0000   -0.8250    0.0000 C   0  0  0  0  0  0  0  0  0  0  0  0
    0.8250   -0.8250    0.0000 F   0  0  0  0  0  0  0  0  0  0  0  0
   -0.8250   -0.8250    0.0000 F   0  0  0  0  0  0  0  0  0  0  0  0
    0.0000   -1.6500    0.0000 S   0  0  0  0  0  0  0  0  0  0  0  0
    0.0000   -2.4750    0.0000 O   0  0  0  0  0  0  0  0  0  0  0  0
    0.8250   -1.6500    0.0000 O   0  0  0  0  0  0  0  0  0  0  0  0
   -0.8250   -1.6500    0.0000 O   0  0  0  0  0  0  0  0  0  0  0  0
    0.0000   -0.0000    0.0000 C   0  0  0  0  0  0  0  0  0  0  0  0
    0.8250   -0.0000    0.0000 F   0  0  0  0  0  0  0  0  0  0  0  0
   -0.8250   -0.0000    0.0000 F   0  0  0  0  0  0  0  0  0  0  0  0
    0.0000    0.8250    0.0000 C   0  0  0  0  0  0  0  0  0  0  0  0
    0.8250    0.8250    0.0000 F   0  0  0  0  0  0  0  0  0  0  0  0
   -0.8250    0.8250    0.0000 F   0  0  0  0  0  0  0  0  0  0  0  0
    0.0000    1.6500    0.0000 C   0  0  0  0  0  0  0  0  0  0  0  0
    0.0000    2.4750    0.0000 F   0  0  0  0  0  0  0  0  0  0  0  0
    0.8250    1.6500    0.0000 F   0  0  0  0  0  0  0  0  0  0  0  0
   -0.8250    1.6500    0.0000 F   0  0  0  0  0  0  0  0  0  0  0  0
  1  2  1  0  0  0  0
  1  3  1  0  0  0  0
  1  4  1  0  0  0  0
  4  5  2  0  0  0  0
  4  6  1  0  0  0  0
  4  7  2  0  0  0  0
  1  8  1  0  0  0  0
  8  9  1  0  0  0  0
  8 10  1  0  0  0  0
  8 11  1  0  0  0  0
 11 12  1  0  0  0  0
 11 13  1  0  0  0  0
 11 14  1  0  0  0  0
 14 15  1  0  0  0  0
 14 16  1  0  0  0  0
 14 17  1  0  0  0  0
M  END
> <ChemID>
100086

> <CAS>
375-73-5

> <Original_SMILES>
OS(=O)(=O)C(F)(F)C(F)(F)C(F)(F)C(F)(F)F

> <preferred_name>
Perfluorobutanesulfonic acid

> <dsstox_substance_id>
DTXSID5030030

> <dsstox_compound_id>
DTXCID3010030

> <Canonical_QSARr>
OS(=O)(=O)C(F)(F)C(F)(F)C(F)(F)C(F)(F)F

> <InChI_Code_QSARr>
InChI=1S/C4HF9O3S/c5-1(6,3(9,10)11)2(7,8)4(12,13)17(14,15)16/h(H,14,15,16)

> <InChI Key_QSARr>
JGTNAGYHADQMCM-UHFFFAOYSA-N

> <Salt_Solvent>


> <Salt_Solvent_ID>
0

> <RT>
6.58

$$$$
Row85
  Mrv171c012261910382D          

 10 11  0  0  0  0            999 V2000
    0.0668   -1.4386    0.0000 N   0  0  0  0  0  0  0  0  0  0  0  0
    0.5518   -0.7711    0.0000 C   0  0  0  0  0  0  0  0  0  0  0  0
    0.2968    0.0135    0.0000 O   0  0  0  0  0  0  0  0  0  0  0  0
    1.3364   -1.0261    0.0000 C   0  0  0  0  0  0  0  0  0  0  0  0
    2.0509   -0.6136    0.0000 C   0  0  0  0  0  0  0  0  0  0  0  0
    2.7653   -1.0261    0.0000 C   0  0  0  0  0  0  0  0  0  0  0  0
    2.7653   -1.8511    0.0000 C   0  0  0  0  0  0  0  0  0  0  0  0
    2.0509   -2.2636    0.0000 C   0  0  0  0  0  0  0  0  0  0  0  0
    1.3364   -1.8511    0.0000 C   0  0  0  0  0  0  0  0  0  0  0  0
    0.5518   -2.1060    0.0000 S   0  0  0  0  0  0  0  0  0  0  0  0
  2  1  1  0  0  0  0
  2  3  2  0  0  0  0
  4  2  1  0  0  0  0
  4  5  1  0  0  0  0
  5  6  2  0  0  0  0
  6  7  1  0  0  0  0
  7  8  2  0  0  0  0
  8  9  1  0  0  0  0
  9  4  2  0  0  0  0
 10  9  1  0  0  0  0
  1 10  1  0  0  0  0
M  END
> <ChemID>
100087

> <CAS>
2634-33-5

> <Original_SMILES>
O=C1NSc2ccccc21

> <preferred_name>
1,2-Benzisothiazolin-3-one

> <dsstox_substance_id>
DTXSID5032523

> <dsstox_compound_id>
DTXCID3012523

> <Canonical_QSARr>
O=C1NSC2C=CC=CC=21

> <InChI_Code_QSARr>
InChI=1S/C7H5NOS/c9-7-5-3-1-2-4-6(5)10-8-7/h1-4H,(H,8,9)

> <InChI Key_QSARr>
DMSMPAJRVJJAGA-UHFFFAOYSA-N

> <Salt_Solvent>


> <Salt_Solvent_ID>
0

> <RT>
2.873

$$$$
Row86
  Mrv171c012261910382D          

 29 28  0  0  0  0            999 V2000
    5.7753   -4.1580    0.0000 C   0  0  0  0  0  0  0  0  0  0  0  0
    6.6003   -4.1580    0.0000 F   0  0  0  0  0  0  0  0  0  0  0  0
    4.9503   -4.1580    0.0000 F   0  0  0  0  0  0  0  0  0  0  0  0
    5.7753   -4.9830    0.0000 S   0  0  0  0  0  0  0  0  0  0  0  0
    5.7753   -5.8080    0.0000 O   0  0  0  0  0  0  0  0  0  0  0  0
    6.6003   -4.9830    0.0000 N   0  0  0  0  0  0  0  0  0  0  0  0
    4.9503   -4.9830    0.0000 O   0  0  0  0  0  0  0  0  0  0  0  0
    5.7753   -3.3330    0.0000 C   0  0  0  0  0  0  0  0  0  0  0  0
    6.6003   -3.3330    0.0000 F   0  0  0  0  0  0  0  0  0  0  0  0
    4.9503   -3.3330    0.0000 F   0  0  0  0  0  0  0  0  0  0  0  0
    5.7753   -2.5080    0.0000 C   0  0  0  0  0  0  0  0  0  0  0  0
    6.6003   -2.5080    0.0000 F   0  0  0  0  0  0  0  0  0  0  0  0
    4.9503   -2.5080    0.0000 F   0  0  0  0  0  0  0  0  0  0  0  0
    5.7753   -1.6830    0.0000 C   0  0  0  0  0  0  0  0  0  0  0  0
    6.6003   -1.6830    0.0000 F   0  0  0  0  0  0  0  0  0  0  0  0
    4.9503   -1.6830    0.0000 F   0  0  0  0  0  0  0  0  0  0  0  0
    5.7753   -0.8580    0.0000 C   0  0  0  0  0  0  0  0  0  0  0  0
    6.6003   -0.8580    0.0000 F   0  0  0  0  0  0  0  0  0  0  0  0
    4.9503   -0.8580    0.0000 F   0  0  0  0  0  0  0  0  0  0  0  0
    5.7753   -0.0330    0.0000 C   0  0  0  0  0  0  0  0  0  0  0  0
    6.6003   -0.0330    0.0000 F   0  0  0  0  0  0  0  0  0  0  0  0
    4.9503   -0.0330    0.0000 F   0  0  0  0  0  0  0  0  0  0  0  0
    5.7753    0.7920    0.0000 C   0  0  0  0  0  0  0  0  0  0  0  0
    6.6003    0.7920    0.0000 F   0  0  0  0  0  0  0  0  0  0  0  0
    4.9503    0.7920    0.0000 F   0  0  0  0  0  0  0  0  0  0  0  0
    5.7753    1.6170    0.0000 C   0  0  0  0  0  0  0  0  0  0  0  0
    5.7753    2.4420    0.0000 F   0  0  0  0  0  0  0  0  0  0  0  0
    6.6003    1.6170    0.0000 F   0  0  0  0  0  0  0  0  0  0  0  0
    4.9503    1.6170    0.0000 F   0  0  0  0  0  0  0  0  0  0  0  0
  1  2  1  0  0  0  0
  1  3  1  0  0  0  0
  1  4  1  0  0  0  0
  4  5  2  0  0  0  0
  4  6  1  0  0  0  0
  4  7  2  0  0  0  0
  1  8  1  0  0  0  0
  8  9  1  0  0  0  0
  8 10  1  0  0  0  0
  8 11  1  0  0  0  0
 11 12  1  0  0  0  0
 11 13  1  0  0  0  0
 11 14  1  0  0  0  0
 14 15  1  0  0  0  0
 14 16  1  0  0  0  0
 14 17  1  0  0  0  0
 17 18  1  0  0  0  0
 17 19  1  0  0  0  0
 17 20  1  0  0  0  0
 20 21  1  0  0  0  0
 20 22  1  0  0  0  0
 20 23  1  0  0  0  0
 23 24  1  0  0  0  0
 23 25  1  0  0  0  0
 23 26  1  0  0  0  0
 26 27  1  0  0  0  0
 26 28  1  0  0  0  0
 26 29  1  0  0  0  0
M  END
> <ChemID>
100088

> <CAS>
754-91-6

> <Original_SMILES>
NS(=O)(=O)C(F)(F)C(F)(F)C(F)(F)C(F)(F)C(F)(F)C(F)(F)C(F)(F)C(F)(F)F

> <preferred_name>
Perfluorooctanesulfonamide

> <dsstox_substance_id>
DTXSID3038939

> <dsstox_compound_id>
DTXCID1018939

> <Canonical_QSARr>
NS(=O)(=O)C(F)(F)C(F)(F)C(F)(F)C(F)(F)C(F)(F)C(F)(F)C(F)(F)C(F)(F)F

> <InChI_Code_QSARr>
InChI=1S/C8H2F17NO2S/c9-1(10,3(13,14)5(17,18)7(21,22)23)2(11,12)4(15,16)6(19,20)8(24,25)29(26,27)28/h(H2,26,27,28)

> <InChI Key_QSARr>
RRRXPPIDPYTNJG-UHFFFAOYSA-N

> <Salt_Solvent>


> <Salt_Solvent_ID>
0

> <RT>
26.376

$$$$
Row87
  Mrv171c012261910382D          

 19 18  0  0  0  0            999 V2000
   -0.2925   -1.1225    0.0000 C   0  0  0  0  0  0  0  0  0  0  0  0
   -1.0070   -1.5350    0.0000 O   0  0  0  0  0  0  0  0  0  0  0  0
   -0.2925   -0.2975    0.0000 O   0  0  0  0  0  0  0  0  0  0  0  0
    0.4220   -1.5350    0.0000 C   0  0  0  0  0  0  0  0  0  0  0  0
    1.1364   -1.1225    0.0000 N   0  0  0  0  0  0  0  0  0  0  0  0
    1.8509   -1.5350    0.0000 C   0  0  0  0  0  0  0  0  0  0  0  0
    1.8509   -2.3600    0.0000 O   0  0  0  0  0  0  0  0  0  0  0  0
    2.5654   -1.1225    0.0000 C   0  0  0  0  0  0  0  0  0  0  0  0
    3.2799   -1.5350    0.0000 C   0  0  0  0  0  0  0  0  0  0  0  0
    3.9943   -1.1225    0.0000 C   0  0  0  0  0  0  0  0  0  0  0  0
    4.7088   -1.5350    0.0000 C   0  0  0  0  0  0  0  0  0  0  0  0
    5.4233   -1.1225    0.0000 C   0  0  0  0  0  0  0  0  0  0  0  0
    6.1377   -1.5350    0.0000 C   0  0  0  0  0  0  0  0  0  0  0  0
    6.8522   -1.1225    0.0000 C   0  0  0  0  0  0  0  0  0  0  0  0
    7.5667   -1.5350    0.0000 C   0  0  0  0  0  0  0  0  0  0  0  0
    8.2812   -1.1225    0.0000 C   0  0  0  0  0  0  0  0  0  0  0  0
    8.9956   -1.5350    0.0000 C   0  0  0  0  0  0  0  0  0  0  0  0
    9.7101   -1.1225    0.0000 C   0  0  0  0  0  0  0  0  0  0  0  0
    1.1364   -0.2975    0.0000 C   0  0  0  0  0  0  0  0  0  0  0  0
  1  2  1  0  0  0  0
  1  3  2  0  0  0  0
  1  4  1  0  0  0  0
  4  5  1  0  0  0  0
  5  6  1  0  0  0  0
  6  7  2  0  0  0  0
  6  8  1  0  0  0  0
  8  9  1  0  0  0  0
  9 10  1  0  0  0  0
 10 11  1  0  0  0  0
 11 12  1  0  0  0  0
 12 13  1  0  0  0  0
 13 14  1  0  0  0  0
 14 15  1  0  0  0  0
 15 16  1  0  0  0  0
 16 17  1  0  0  0  0
 17 18  1  0  0  0  0
  5 19  1  0  0  0  0
M  END
> <ChemID>
100089

> <CAS>
97-78-9

> <Original_SMILES>
CCCCCCCCCCCC(=O)N(C)CC(O)=O

> <preferred_name>
N-Dodecanoyl-N-methylglycine

> <dsstox_substance_id>
DTXSID7042011

> <dsstox_compound_id>
DTXCID5022011

> <Canonical_QSARr>
CCCCCCCCCCCC(=O)N(C)CC(O)=O

> <InChI_Code_QSARr>
InChI=1S/C15H29NO3/c1-3-4-5-6-7-8-9-10-11-12-14(17)16(2)13-15(18)19/h3-13H2,1-2H3,(H,18,19)

> <InChI Key_QSARr>
BACYUWVYYTXETD-UHFFFAOYSA-N

> <Salt_Solvent>


> <Salt_Solvent_ID>
0

> <RT>
19.9465

$$$$
Row88
  Mrv171c012261910382D          

 21 20  0  0  0  0            999 V2000
    9.2529   -1.2493    0.0000 C   0  0  0  0  0  0  0  0  0  0  0  0
    8.5384   -0.8368    0.0000 C   0  0  0  0  0  0  0  0  0  0  0  0
    7.8239   -1.2493    0.0000 C   0  0  0  0  0  0  0  0  0  0  0  0
    7.1095   -0.8368    0.0000 C   0  0  0  0  0  0  0  0  0  0  0  0
    6.3950   -1.2493    0.0000 C   0  0  0  0  0  0  0  0  0  0  0  0
    5.6805   -0.8368    0.0000 C   0  0  0  0  0  0  0  0  0  0  0  0
    4.9661   -1.2493    0.0000 C   0  0  0  0  0  0  0  0  0  0  0  0
    4.2516   -0.8368    0.0000 C   0  0  0  0  0  0  0  0  0  0  0  0
    3.5371   -1.2493    0.0000 C   0  0  0  0  0  0  0  0  0  0  0  0
    2.8226   -0.8368    0.0000 C   0  0  0  0  0  0  0  0  0  0  0  0
    2.1082   -1.2493    0.0000 C   0  0  0  0  0  0  0  0  0  0  0  0
    1.3937   -0.8368    0.0000 C   0  0  0  0  0  0  0  0  0  0  0  0
    0.6792   -1.2493    0.0000 C   0  0  0  0  0  0  0  0  0  0  0  0
   -0.0352   -0.8368    0.0000 C   0  0  0  0  0  0  0  0  0  0  0  0
    9.9674   -0.8368    0.0000 O   0  0  0  0  0  0  0  0  0  0  0  0
   10.6818   -1.2493    0.0000 C   0  0  0  0  0  0  0  0  0  0  0  0
   11.3963   -0.8368    0.0000 C   0  0  0  0  0  0  0  0  0  0  0  0
   11.3963   -0.0118    0.0000 O   0  0  0  0  0  0  0  0  0  0  0  0
   12.1108   -1.2493    0.0000 C   0  0  0  0  0  0  0  0  0  0  0  0
   12.8252   -0.8368    0.0000 O   0  0  0  0  0  0  0  0  0  0  0  0
    9.2529   -2.0743    0.0000 O   0  0  0  0  0  0  0  0  0  0  0  0
  1  2  1  0  0  0  0
  2  3  1  0  0  0  0
  3  4  1  0  0  0  0
  4  5  1  0  0  0  0
  5  6  1  0  0  0  0
  6  7  1  0  0  0  0
  7  8  1  0  0  0  0
  8  9  1  0  0  0  0
  9 10  1  0  0  0  0
 10 11  1  0  0  0  0
 11 12  1  0  0  0  0
 12 13  1  0  0  0  0
 13 14  1  0  0  0  0
  1 15  1  0  0  0  0
 15 16  1  0  0  0  0
 16 17  1  0  0  0  0
 17 18  1  0  0  0  0
 17 19  1  0  0  0  0
 19 20  1  0  0  0  0
  1 21  2  0  0  0  0
M  END
> <ChemID>
100090

> <CAS>
589-68-4

> <Original_SMILES>
CCCCCCCCCCCCCC(=O)OCC(O)CO

> <preferred_name>
Tetradecanoic acid, 2,3-dihydroxypropyl ester

> <dsstox_substance_id>
DTXSID0042454

> <dsstox_compound_id>
DTXCID1022005

> <Canonical_QSARr>
CCCCCCCCCCCCCC(=O)OCC(O)CO

> <InChI_Code_QSARr>
InChI=1S/C17H34O4/c1-2-3-4-5-6-7-8-9-10-11-12-13-17(20)21-15-16(19)14-18/h16,18-19H,2-15H2,1H3

> <InChI Key_QSARr>
DCBSHORRWZKAKO-UHFFFAOYSA-N

> <Salt_Solvent>


> <Salt_Solvent_ID>
0

> <RT>
29.81

$$$$
Row89
  Mrv171c012261910382D          

 16 17  0  0  0  0            999 V2000
    2.1429   -1.2371    0.0000 C   0  0  0  0  0  0  0  0  0  0  0  0
    2.1429   -0.4121    0.0000 C   0  0  0  0  0  0  0  0  0  0  0  0
    1.4285   -0.8246    0.0000 C   0  0  0  0  0  0  0  0  0  0  0  0
    1.4285    0.0004    0.0000 C   0  0  0  0  0  0  0  0  0  0  0  0
    0.7140   -1.2371    0.0000 C   0  0  0  0  0  0  0  0  0  0  0  0
    0.7140   -2.0621    0.0000 C   0  0  0  0  0  0  0  0  0  0  0  0
   -0.0005   -2.4746    0.0000 O   0  0  0  0  0  0  0  0  0  0  0  0
    1.4285   -2.4746    0.0000 C   0  0  0  0  0  0  0  0  0  0  0  0
    2.1429   -2.0621    0.0000 C   0  0  0  0  0  0  0  0  0  0  0  0
    2.8574   -2.4746    0.0000 C   0  0  0  0  0  0  0  0  0  0  0  0
    3.5719   -2.0621    0.0000 C   0  0  0  0  0  0  0  0  0  0  0  0
    3.5719   -1.2371    0.0000 C   0  0  0  0  0  0  0  0  0  0  0  0
    4.2863   -0.8246    0.0000 C   0  0  0  0  0  0  0  0  0  0  0  0
    4.2863    0.0004    0.0000 C   0  0  0  0  0  0  0  0  0  0  0  0
    5.0008   -1.2371    0.0000 C   0  0  0  0  0  0  0  0  0  0  0  0
    2.8574   -0.8246    0.0000 C   0  0  0  0  0  0  0  0  0  0  0  0
  1  2  1  0  0  0  0
  3  1  1  0  0  0  0
  3  4  1  0  0  0  0
  5  3  1  0  0  0  0
  6  5  1  0  0  0  0
  6  7  2  0  0  0  0
  8  6  1  0  0  0  0
  9  8  2  0  0  0  0
  9  1  1  0  0  0  0
 10  9  1  0  0  0  0
 11 10  1  0  0  0  0
 12 11  1  0  0  0  0
 12 13  1  0  0  0  0
 13 14  1  0  0  0  0
 13 15  2  0  0  0  0
 16 12  1  0  0  0  0
  1 16  1  0  0  0  0
M  END
> <ChemID>
100091

> <CAS>
4674-50-4

> <Original_SMILES>
CC(=C)[C@H]1C[C@@]2(C)[C@H](C)CC(=O)C=C2CC1

> <preferred_name>
(+)-Nootkatone

> <dsstox_substance_id>
DTXSID8047050

> <dsstox_compound_id>
DTXCID6027050

> <Canonical_QSARr>
CC(=C)C1CC2(C)C(C)CC(=O)C=C2CC1

> <InChI_Code_QSARr>
InChI=1S/C15H22O/c1-10(2)12-5-6-13-8-14(16)7-11(3)15(13,4)9-12/h8,11-12H,1,5-7,9H2,2-4H3

> <InChI Key_QSARr>
WTOYNNBCKUYIKC-UHFFFAOYSA-N

> <Salt_Solvent>


> <Salt_Solvent_ID>
0

> <RT>
23.165

$$$$
Row90
  Mrv171c012261910382D          

 27 28  0  0  0  0            999 V2000
    0.4988   -1.5048    0.0000 N   0  0  0  0  0  0  0  0  0  0  0  0
    1.2834   -1.2499    0.0000 C   0  0  0  0  0  0  0  0  0  0  0  0
    1.8965   -1.8019    0.0000 C   0  0  0  0  0  0  0  0  0  0  0  0
    1.7250   -2.6089    0.0000 Cl  0  0  0  0  0  0  0  0  0  0  0  0
    2.6811   -1.5470    0.0000 C   0  0  0  0  0  0  0  0  0  0  0  0
    2.8527   -0.7400    0.0000 C   0  0  0  0  0  0  0  0  0  0  0  0
    3.6373   -0.4851    0.0000 C   0  0  0  0  0  0  0  0  0  0  0  0
    4.4219   -0.2301    0.0000 F   0  0  0  0  0  0  0  0  0  0  0  0
    3.3823    0.2996    0.0000 F   0  0  0  0  0  0  0  0  0  0  0  0
    3.8922   -1.2697    0.0000 F   0  0  0  0  0  0  0  0  0  0  0  0
    2.2396   -0.1880    0.0000 C   0  0  0  0  0  0  0  0  0  0  0  0
    1.4549   -0.4429    0.0000 C   0  0  0  0  0  0  0  0  0  0  0  0
    0.8419    0.1091    0.0000 Cl  0  0  0  0  0  0  0  0  0  0  0  0
   -0.1686   -1.0199    0.0000 C   0  0  0  0  0  0  0  0  0  0  0  0
   -0.1686   -0.1949    0.0000 N   0  0  0  0  0  0  0  0  0  0  0  0
   -0.8361   -1.5048    0.0000 C   0  0  0  0  0  0  0  0  0  0  0  0
   -1.6207   -1.2499    0.0000 S   0  0  0  0  0  0  0  0  0  0  0  0
   -2.4053   -0.9949    0.0000 C   0  0  0  0  0  0  0  0  0  0  0  0
   -3.1899   -0.7400    0.0000 F   0  0  0  0  0  0  0  0  0  0  0  0
   -2.1504   -0.2103    0.0000 F   0  0  0  0  0  0  0  0  0  0  0  0
   -2.6603   -1.7796    0.0000 F   0  0  0  0  0  0  0  0  0  0  0  0
   -1.3658   -0.4653    0.0000 O   0  0  0  0  0  0  0  0  0  0  0  0
   -1.8756   -2.0345    0.0000 O   0  0  0  0  0  0  0  0  0  0  0  0
   -0.5811   -2.2894    0.0000 C   0  0  0  0  0  0  0  0  0  0  0  0
   -1.0661   -2.9569    0.0000 C   0  0  0  0  0  0  0  0  0  0  0  0
   -1.5510   -3.6243    0.0000 N   0  0  0  0  0  0  0  0  0  0  0  0
    0.2439   -2.2894    0.0000 N   0  0  0  0  0  0  0  0  0  0  0  0
  1  2  1  0  0  0  0
  3  2  1  0  0  0  0
  3  4  1  0  0  0  0
  5  3  2  0  0  0  0
  6  5  1  0  0  0  0
  6  7  1  0  0  0  0
  7  8  1  0  0  0  0
  7  9  1  0  0  0  0
  7 10  1  0  0  0  0
 11  6  2  0  0  0  0
 12 11  1  0  0  0  0
  2 12  2  0  0  0  0
 12 13  1  0  0  0  0
 14  1  1  0  0  0  0
 14 15  1  0  0  0  0
 16 14  2  0  0  0  0
 16 17  1  0  0  0  0
 17 18  1  0  0  0  0
 18 19  1  0  0  0  0
 18 20  1  0  0  0  0
 18 21  1  0  0  0  0
 17 22  2  0  0  0  0
 17 23  2  0  0  0  0
 24 16  1  0  0  0  0
 24 25  1  0  0  0  0
 25 26  3  0  0  0  0
 27 24  2  0  0  0  0
  1 27  1  0  0  0  0
M  END
> <ChemID>
100092

> <CAS>
120068-36-2

> <Original_SMILES>
Nc1c(c(C#N)[n][n]1-c1c(Cl)cc(cc1Cl)C(F)(F)F)S(=O)(=O)C(F)(F)F

> <preferred_name>
Fipronil Sulfone

> <dsstox_substance_id>
DTXSID6074750

> <dsstox_compound_id>
DTXCID9033557

> <Canonical_QSARr>
NC1=C(C(C#N)=NN1C1C(Cl)=CC(=CC=1Cl)C(F)(F)F)S(=O)(=O)C(F)(F)F

> <InChI_Code_QSARr>
InChI=1S/C12H4Cl2F6N4O2S/c13-5-1-4(11(15,16)17)2-6(14)8(5)24-10(22)9(7(3-21)23-24)27(25,26)12(18,19)20/h1-2H,22H2

> <InChI Key_QSARr>
LGHZJDKSVUTELU-UHFFFAOYSA-N

> <Salt_Solvent>


> <Salt_Solvent_ID>
0

> <RT>
24.173

$$$$
Row91
  Mrv171c001122012332D          

 41 40  0  0  0  0            999 V2000
   -3.2527    0.7939    0.0000 O   0  0  0  0  0  0  0  0  0  0  0  0
   -4.0777    0.7939    0.0000 P   0  0  0  0  0  0  0  0  0  0  0  0
   -4.0777    1.6189    0.0000 O   0  0  0  0  0  0  0  0  0  0  0  0
   -4.7922    2.0314    0.0000 C   0  0  0  0  0  0  0  0  0  0  0  0
   -4.7922    2.8564    0.0000 C   0  0  0  0  0  0  0  0  0  0  0  0
   -5.5067    3.2689    0.0000 C   0  0  0  0  0  0  0  0  0  0  0  0
   -5.9192    2.5545    0.0000 F   0  0  0  0  0  0  0  0  0  0  0  0
   -5.0942    3.9834    0.0000 F   0  0  0  0  0  0  0  0  0  0  0  0
   -6.2211    3.6814    0.0000 C   0  0  0  0  0  0  0  0  0  0  0  0
   -6.6336    2.9670    0.0000 F   0  0  0  0  0  0  0  0  0  0  0  0
   -5.8086    4.3959    0.0000 F   0  0  0  0  0  0  0  0  0  0  0  0
   -6.9356    4.0939    0.0000 C   0  0  0  0  0  0  0  0  0  0  0  0
   -7.3481    3.3795    0.0000 F   0  0  0  0  0  0  0  0  0  0  0  0
   -6.5231    4.8084    0.0000 F   0  0  0  0  0  0  0  0  0  0  0  0
   -7.6501    4.5064    0.0000 C   0  0  0  0  0  0  0  0  0  0  0  0
   -8.3646    4.9189    0.0000 F   0  0  0  0  0  0  0  0  0  0  0  0
   -8.0626    3.7920    0.0000 F   0  0  0  0  0  0  0  0  0  0  0  0
   -7.2376    5.2209    0.0000 F   0  0  0  0  0  0  0  0  0  0  0  0
   -4.0777   -0.0311    0.0000 O   0  0  0  0  0  0  0  0  0  0  0  0
   -3.3633   -0.4436    0.0000 C   0  0  0  0  0  0  0  0  0  0  0  0
   -3.3633   -1.2686    0.0000 C   0  0  0  0  0  0  0  0  0  0  0  0
   -2.6488   -1.6811    0.0000 C   0  0  0  0  0  0  0  0  0  0  0  0
   -3.0613   -2.3955    0.0000 F   0  0  0  0  0  0  0  0  0  0  0  0
   -2.2363   -0.9666    0.0000 F   0  0  0  0  0  0  0  0  0  0  0  0
   -1.9343   -2.0936    0.0000 C   0  0  0  0  0  0  0  0  0  0  0  0
   -2.3468   -2.8080    0.0000 F   0  0  0  0  0  0  0  0  0  0  0  0
   -1.5218   -1.3791    0.0000 F   0  0  0  0  0  0  0  0  0  0  0  0
   -1.2198   -2.5061    0.0000 C   0  0  0  0  0  0  0  0  0  0  0  0
   -1.6323   -3.2205    0.0000 F   0  0  0  0  0  0  0  0  0  0  0  0
   -0.8073   -1.7916    0.0000 F   0  0  0  0  0  0  0  0  0  0  0  0
   -0.5054   -2.9186    0.0000 C   0  0  0  0  0  0  0  0  0  0  0  0
   -0.9179   -3.6330    0.0000 F   0  0  0  0  0  0  0  0  0  0  0  0
   -0.0929   -2.2041    0.0000 F   0  0  0  0  0  0  0  0  0  0  0  0
    0.2091   -3.3311    0.0000 C   0  0  0  0  0  0  0  0  0  0  0  0
   -0.2034   -4.0455    0.0000 F   0  0  0  0  0  0  0  0  0  0  0  0
    0.6216   -2.6166    0.0000 F   0  0  0  0  0  0  0  0  0  0  0  0
    0.9236   -3.7436    0.0000 C   0  0  0  0  0  0  0  0  0  0  0  0
    1.6380   -4.1561    0.0000 F   0  0  0  0  0  0  0  0  0  0  0  0
    0.5111   -4.4580    0.0000 F   0  0  0  0  0  0  0  0  0  0  0  0
    1.3361   -3.0291    0.0000 F   0  0  0  0  0  0  0  0  0  0  0  0
   -4.9027    0.7939    0.0000 O   0  0  0  0  0  0  0  0  0  0  0  0
  1  2  1  0  0  0  0
  2  3  1  0  0  0  0
  3  4  1  0  0  0  0
  4  5  1  0  0  0  0
  5  6  1  0  0  0  0
  6  7  1  0  0  0  0
  6  8  1  0  0  0  0
  6  9  1  0  0  0  0
  9 10  1  0  0  0  0
  9 11  1  0  0  0  0
  9 12  1  0  0  0  0
 12 13  1  0  0  0  0
 12 14  1  0  0  0  0
 12 15  1  0  0  0  0
 15 16  1  0  0  0  0
 15 17  1  0  0  0  0
 15 18  1  0  0  0  0
  2 19  1  0  0  0  0
 19 20  1  0  0  0  0
 20 21  1  0  0  0  0
 21 22  1  0  0  0  0
 22 23  1  0  0  0  0
 22 24  1  0  0  0  0
 22 25  1  0  0  0  0
 25 26  1  0  0  0  0
 25 27  1  0  0  0  0
 25 28  1  0  0  0  0
 28 29  1  0  0  0  0
 28 30  1  0  0  0  0
 28 31  1  0  0  0  0
 31 32  1  0  0  0  0
 31 33  1  0  0  0  0
 31 34  1  0  0  0  0
 34 35  1  0  0  0  0
 34 36  1  0  0  0  0
 34 37  1  0  0  0  0
 37 38  1  0  0  0  0
 37 39  1  0  0  0  0
 37 40  1  0  0  0  0
  2 41  2  0  0  0  0
M  END
> <ChemID>
100093

> <CAS>
1411713-84-2

> <Original_SMILES>
[O-]P(=O)(OCCC(F)(F)C(F)(F)C(F)(F)C(F)(F)F)OCCC(F)(F)C(F)(F)C(F)(F)C(F)(F)C(F)(F)C(F)(F)F

> <preferred_name>
3,3,4,4,5,5,6,6,6-Nonafluorohexyl 3,3,4,4,5,5,6,6,7,7,8,8,8-tridecafluorooctyl phosphate

> <dsstox_substance_id>
DTXSID00873413

> <dsstox_compound_id>
DTXCID30996962

> <Canonical_QSARr>
OP(=O)(OCCC(F)(F)C(F)(F)C(F)(F)C(F)(F)F)OCCC(F)(F)C(F)(F)C(F)(F)C(F)(F)C(F)(F)C(F)(F)F

> <InChI_Code_QSARr>
InChI=1S/C14H9F22O4P/c15-5(16,7(19,20)9(23,24)10(25,26)12(29,30)14(34,35)36)1-3-39-41(37,38)40-4-2-6(17,18)8(21,22)11(27,28)13(31,32)33/h1-4H2,(H,37,38)

> <InChI Key_QSARr>
RTWBXVKDNXSYBW-UHFFFAOYSA-N

> <Salt_Solvent>


> <Salt_Solvent_ID>
0

> <RT>
25.66

$$$$
Row92
  Mrv171c012261910382D          

 53 52  0  0  0  0            999 V2000
    6.5937   -5.4551    0.0000 F   0  0  0  0  0  0  0  0  0  0  0  0
    5.8792   -5.0426    0.0000 C   0  0  0  0  0  0  0  0  0  0  0  0
    6.2917   -4.3281    0.0000 F   0  0  0  0  0  0  0  0  0  0  0  0
    5.4667   -5.7570    0.0000 F   0  0  0  0  0  0  0  0  0  0  0  0
    5.1648   -4.6301    0.0000 C   0  0  0  0  0  0  0  0  0  0  0  0
    5.5773   -3.9156    0.0000 F   0  0  0  0  0  0  0  0  0  0  0  0
    4.7523   -5.3445    0.0000 F   0  0  0  0  0  0  0  0  0  0  0  0
    4.4503   -4.2176    0.0000 C   0  0  0  0  0  0  0  0  0  0  0  0
    4.8628   -3.5031    0.0000 F   0  0  0  0  0  0  0  0  0  0  0  0
    4.0378   -4.9320    0.0000 F   0  0  0  0  0  0  0  0  0  0  0  0
    3.7358   -3.8051    0.0000 C   0  0  0  0  0  0  0  0  0  0  0  0
    4.1483   -3.0906    0.0000 F   0  0  0  0  0  0  0  0  0  0  0  0
    3.3233   -4.5195    0.0000 F   0  0  0  0  0  0  0  0  0  0  0  0
    3.0214   -3.3926    0.0000 C   0  0  0  0  0  0  0  0  0  0  0  0
    3.4339   -2.6781    0.0000 F   0  0  0  0  0  0  0  0  0  0  0  0
    2.6089   -4.1070    0.0000 F   0  0  0  0  0  0  0  0  0  0  0  0
    2.3069   -2.9801    0.0000 C   0  0  0  0  0  0  0  0  0  0  0  0
    2.7194   -2.2656    0.0000 F   0  0  0  0  0  0  0  0  0  0  0  0
    1.8944   -3.6945    0.0000 F   0  0  0  0  0  0  0  0  0  0  0  0
    1.5924   -2.5676    0.0000 C   0  0  0  0  0  0  0  0  0  0  0  0
    1.5924   -1.7426    0.0000 C   0  0  0  0  0  0  0  0  0  0  0  0
    0.8780   -1.3301    0.0000 O   0  0  0  0  0  0  0  0  0  0  0  0
    0.8780   -0.5051    0.0000 P   0  0  0  0  0  0  0  0  0  0  0  0
    0.8780    0.3199    0.0000 O   0  0  0  0  0  0  0  0  0  0  0  0
    0.1635    0.7324    0.0000 C   0  0  0  0  0  0  0  0  0  0  0  0
    0.1635    1.5574    0.0000 C   0  0  0  0  0  0  0  0  0  0  0  0
   -0.5510    1.9699    0.0000 C   0  0  0  0  0  0  0  0  0  0  0  0
   -0.1385    2.6844    0.0000 F   0  0  0  0  0  0  0  0  0  0  0  0
   -0.9635    1.2555    0.0000 F   0  0  0  0  0  0  0  0  0  0  0  0
   -1.2655    2.3824    0.0000 C   0  0  0  0  0  0  0  0  0  0  0  0
   -0.8530    3.0969    0.0000 F   0  0  0  0  0  0  0  0  0  0  0  0
   -1.6780    1.6680    0.0000 F   0  0  0  0  0  0  0  0  0  0  0  0
   -1.9799    2.7949    0.0000 C   0  0  0  0  0  0  0  0  0  0  0  0
   -1.5674    3.5094    0.0000 F   0  0  0  0  0  0  0  0  0  0  0  0
   -2.3924    2.0805    0.0000 F   0  0  0  0  0  0  0  0  0  0  0  0
   -2.6944    3.2074    0.0000 C   0  0  0  0  0  0  0  0  0  0  0  0
   -2.2819    3.9219    0.0000 F   0  0  0  0  0  0  0  0  0  0  0  0
   -3.1069    2.4930    0.0000 F   0  0  0  0  0  0  0  0  0  0  0  0
   -3.4089    3.6199    0.0000 C   0  0  0  0  0  0  0  0  0  0  0  0
   -2.9964    4.3344    0.0000 F   0  0  0  0  0  0  0  0  0  0  0  0
   -3.8214    2.9055    0.0000 F   0  0  0  0  0  0  0  0  0  0  0  0
   -4.1233    4.0324    0.0000 C   0  0  0  0  0  0  0  0  0  0  0  0
   -4.8378    4.4449    0.0000 C   0  0  0  0  0  0  0  0  0  0  0  0
   -4.4253    5.1594    0.0000 F   0  0  0  0  0  0  0  0  0  0  0  0
   -5.2503    3.7305    0.0000 F   0  0  0  0  0  0  0  0  0  0  0  0
   -5.5523    4.8574    0.0000 C   0  0  0  0  0  0  0  0  0  0  0  0
   -6.2668    5.2699    0.0000 F   0  0  0  0  0  0  0  0  0  0  0  0
   -5.1398    5.5719    0.0000 F   0  0  0  0  0  0  0  0  0  0  0  0
   -5.9648    4.1430    0.0000 F   0  0  0  0  0  0  0  0  0  0  0  0
   -3.7108    4.7469    0.0000 F   0  0  0  0  0  0  0  0  0  0  0  0
   -4.5358    3.3180    0.0000 F   0  0  0  0  0  0  0  0  0  0  0  0
    1.7030   -0.5051    0.0000 O   0  0  0  0  0  0  0  0  0  0  0  0
    0.0530   -0.5051    0.0000 O   0  0  0  0  0  0  0  0  0  0  0  0
  1  2  1  0  0  0  0
  2  3  1  0  0  0  0
  2  4  1  0  0  0  0
  2  5  1  0  0  0  0
  5  6  1  0  0  0  0
  5  7  1  0  0  0  0
  5  8  1  0  0  0  0
  8  9  1  0  0  0  0
  8 10  1  0  0  0  0
  8 11  1  0  0  0  0
 11 12  1  0  0  0  0
 11 13  1  0  0  0  0
 11 14  1  0  0  0  0
 14 15  1  0  0  0  0
 14 16  1  0  0  0  0
 14 17  1  0  0  0  0
 17 18  1  0  0  0  0
 17 19  1  0  0  0  0
 17 20  1  0  0  0  0
 20 21  1  0  0  0  0
 21 22  1  0  0  0  0
 22 23  1  0  0  0  0
 23 24  1  0  0  0  0
 24 25  1  0  0  0  0
 25 26  1  0  0  0  0
 26 27  1  0  0  0  0
 27 28  1  0  0  0  0
 27 29  1  0  0  0  0
 27 30  1  0  0  0  0
 30 31  1  0  0  0  0
 30 32  1  0  0  0  0
 30 33  1  0  0  0  0
 33 34  1  0  0  0  0
 33 35  1  0  0  0  0
 33 36  1  0  0  0  0
 36 37  1  0  0  0  0
 36 38  1  0  0  0  0
 36 39  1  0  0  0  0
 39 40  1  0  0  0  0
 39 41  1  0  0  0  0
 39 42  1  0  0  0  0
 42 43  1  0  0  0  0
 43 44  1  0  0  0  0
 43 45  1  0  0  0  0
 43 46  1  0  0  0  0
 46 47  1  0  0  0  0
 46 48  1  0  0  0  0
 46 49  1  0  0  0  0
 42 50  1  0  0  0  0
 42 51  1  0  0  0  0
 23 52  1  0  0  0  0
 23 53  2  0  0  0  0
M  END
> <ChemID>
100094

> <CAS>
943913-15-3

> <Original_SMILES>
OP(=O)(OCCC(F)(F)C(F)(F)C(F)(F)C(F)(F)C(F)(F)C(F)(F)C(F)(F)C(F)(F)F)OCCC(F)(F)C(F)(F)C(F)(F)C(F)(F)C(F)(F)C(F)(F)F

> <preferred_name>
6:2/8:2 Fluorotelomer phosphate diester

> <dsstox_substance_id>
DTXSID20873415

> <dsstox_compound_id>
DTXCID501011706

> <Canonical_QSARr>
OP(=O)(OCCC(F)(F)C(F)(F)C(F)(F)C(F)(F)C(F)(F)C(F)(F)C(F)(F)C(F)(F)F)OCCC(F)(F)C(F)(F)C(F)(F)C(F)(F)C(F)(F)C(F)(F)F

> <InChI_Code_QSARr>
InChI=1S/C18H9F30O4P/c19-5(20,7(23,24)9(27,28)11(31,32)12(33,34)14(37,38)16(41,42)18(46,47)48)1-3-51-53(49,50)52-4-2-6(21,22)8(25,26)10(29,30)13(35,36)15(39,40)17(43,44)45/h1-4H2,(H,49,50)

> <InChI Key_QSARr>
KHLRYLUKBJEYFH-UHFFFAOYSA-N

> <Salt_Solvent>


> <Salt_Solvent_ID>
0

> <RT>
29.35

$$$$
Row93
  Mrv171c012261910382D          

 11 11  0  0  0  0            999 V2000
    0.6495    0.4500    0.0000 N   0  0  0  0  0  0  0  0  0  0  0  0
   -0.0649    0.8625    0.0000 C   0  0  0  0  0  0  0  0  0  0  0  0
   -0.0649    1.6875    0.0000 S   0  0  0  0  0  0  0  0  0  0  0  0
   -0.7794    0.4500    0.0000 N   0  0  0  0  0  0  0  0  0  0  0  0
   -0.7794   -0.3750    0.0000 C   0  0  0  0  0  0  0  0  0  0  0  0
   -1.4939   -0.7875    0.0000 O   0  0  0  0  0  0  0  0  0  0  0  0
   -0.0649   -0.7875    0.0000 C   0  0  0  0  0  0  0  0  0  0  0  0
    0.6495   -0.3750    0.0000 C   0  0  0  0  0  0  0  0  0  0  0  0
    1.3640   -0.7875    0.0000 C   0  0  0  0  0  0  0  0  0  0  0  0
    1.3640   -1.6125    0.0000 C   0  0  0  0  0  0  0  0  0  0  0  0
    2.0785   -2.0250    0.0000 C   0  0  0  0  0  0  0  0  0  0  0  0
  2  1  1  0  0  0  0
  2  3  2  0  0  0  0
  4  2  1  0  0  0  0
  5  4  1  0  0  0  0
  5  6  2  0  0  0  0
  7  5  1  0  0  0  0
  8  7  1  0  0  0  0
  1  8  2  0  0  0  0
  8  9  1  0  0  0  0
  9 10  1  0  0  0  0
 10 11  1  0  0  0  0
M  END
> <ChemID>
100095

> <CAS>
51-52-5

> <Original_SMILES>
CCCC1=CC(=O)NC(=S)N1

> <preferred_name>
6-Propyl-2-thiouracil

> <dsstox_substance_id>
DTXSID5021209

> <dsstox_compound_id>
DTXCID101209

> <Canonical_QSARr>
CCCC1CC(=O)NC(=S)N=1

> <InChI_Code_QSARr>
InChI=1S/C7H10N2OS/c1-2-3-5-4-6(10)9-7(11)8-5/h2-4H2,1H3,(H,9,10,11)

> <InChI Key_QSARr>
PEMYLVZMVSILDL-UHFFFAOYSA-N

> <Salt_Solvent>


> <Salt_Solvent_ID>
0

> <RT>
1.72

$$$$
Row94
  Mrv171c012261910382D          

 15 16  0  0  0  0            999 V2000
   -0.0953    0.5775    0.0000 C   0  0  0  0  0  0  0  0  0  0  0  0
    0.6192    0.1650    0.0000 C   0  0  0  0  0  0  0  0  0  0  0  0
    1.3337    0.5775    0.0000 C   0  0  0  0  0  0  0  0  0  0  0  0
    1.3337    1.4025    0.0000 O   0  0  0  0  0  0  0  0  0  0  0  0
    2.0481    0.1650    0.0000 C   0  0  0  0  0  0  0  0  0  0  0  0
    2.0481   -0.6600    0.0000 C   0  0  0  0  0  0  0  0  0  0  0  0
    1.3337   -1.0725    0.0000 C   0  0  0  0  0  0  0  0  0  0  0  0
    0.6192   -0.6600    0.0000 C   0  0  0  0  0  0  0  0  0  0  0  0
   -0.8097    0.1650    0.0000 C   0  0  0  0  0  0  0  0  0  0  0  0
   -1.5242    0.5775    0.0000 C   0  0  0  0  0  0  0  0  0  0  0  0
   -2.2387    0.1650    0.0000 C   0  0  0  0  0  0  0  0  0  0  0  0
   -2.2387   -0.6600    0.0000 C   0  0  0  0  0  0  0  0  0  0  0  0
   -1.5242   -1.0725    0.0000 C   0  0  0  0  0  0  0  0  0  0  0  0
   -0.8097   -0.6600    0.0000 C   0  0  0  0  0  0  0  0  0  0  0  0
   -0.0953   -1.0725    0.0000 O   0  0  0  0  0  0  0  0  0  0  0  0
  1  2  1  0  0  0  0
  3  2  2  0  0  0  0
  3  4  1  0  0  0  0
  5  3  1  0  0  0  0
  6  5  2  0  0  0  0
  7  6  1  0  0  0  0
  8  7  2  0  0  0  0
  2  8  1  0  0  0  0
  1  9  1  0  0  0  0
 10  9  1  0  0  0  0
 11 10  2  0  0  0  0
 12 11  1  0  0  0  0
 13 12  2  0  0  0  0
 14 13  1  0  0  0  0
  9 14  2  0  0  0  0
 14 15  1  0  0  0  0
M  END
> <ChemID>
100096

> <CAS>
2467-02-9

> <Original_SMILES>
Oc1ccccc1Cc1ccccc1O

> <preferred_name>
2,2'-Bisphenol F

> <dsstox_substance_id>
DTXSID4022446

> <dsstox_compound_id>
DTXCID602446

> <Canonical_QSARr>
OC1C=CC=CC=1CC1C=CC=CC=1O

> <InChI_Code_QSARr>
InChI=1S/C13H12O2/c14-12-7-3-1-5-10(12)9-11-6-2-4-8-13(11)15/h1-8,14-15H,9H2

> <InChI Key_QSARr>
MQCPOLNSJCWPGT-UHFFFAOYSA-N

> <Salt_Solvent>


> <Salt_Solvent_ID>
0

> <RT>
10.85

$$$$
Row95
  Mrv171c012261910382D          

 12 13  0  0  0  0            999 V2000
    5.3282   -0.7318    0.0000 Cl  0  0  0  0  0  0  0  0  0  0  0  0
    4.6138   -0.3193    0.0000 C   0  0  0  0  0  0  0  0  0  0  0  0
    4.6138    0.5057    0.0000 C   0  0  0  0  0  0  0  0  0  0  0  0
    5.3282    0.9182    0.0000 O   0  0  0  0  0  0  0  0  0  0  0  0
    3.8993    0.9182    0.0000 C   0  0  0  0  0  0  0  0  0  0  0  0
    3.1848    0.5057    0.0000 C   0  0  0  0  0  0  0  0  0  0  0  0
    3.1848   -0.3193    0.0000 C   0  0  0  0  0  0  0  0  0  0  0  0
    2.4002   -0.5742    0.0000 N   0  0  0  0  0  0  0  0  0  0  0  0
    1.9153    0.0932    0.0000 C   0  0  0  0  0  0  0  0  0  0  0  0
    1.0903    0.0932    0.0000 O   0  0  0  0  0  0  0  0  0  0  0  0
    2.4002    0.7607    0.0000 O   0  0  0  0  0  0  0  0  0  0  0  0
    3.8993   -0.7318    0.0000 C   0  0  0  0  0  0  0  0  0  0  0  0
  1  2  1  0  0  0  0
  3  2  2  0  0  0  0
  3  4  1  0  0  0  0
  5  3  1  0  0  0  0
  6  5  2  0  0  0  0
  6  7  1  0  0  0  0
  7  8  1  0  0  0  0
  8  9  1  0  0  0  0
  9 10  2  0  0  0  0
  9 11  1  0  0  0  0
 11  6  1  0  0  0  0
 12  7  2  0  0  0  0
  2 12  1  0  0  0  0
M  END
> <ChemID>
100097

> <CAS>
1750-45-4

> <Original_SMILES>
Oc1cc2OC(=O)Nc2cc1Cl

> <preferred_name>
6-Hydroxychlorzoxazone

> <dsstox_substance_id>
DTXSID50169919

> <dsstox_compound_id>
DTXCID9092410

> <Canonical_QSARr>
OC1C=C2OC(=O)NC2=CC=1Cl

> <InChI_Code_QSARr>
InChI=1S/C7H4ClNO3/c8-3-1-4-6(2-5(3)10)12-7(11)9-4/h1-2,10H,(H,9,11)

> <InChI Key_QSARr>
AGLXDWOTVQZHIQ-UHFFFAOYSA-N

> <Salt_Solvent>


> <Salt_Solvent_ID>
0

> <RT>
1.83

$$$$
Row96
  Mrv171c012261910382D          

 20 21  0  0  0  0            999 V2000
    5.3653    0.9033    0.0000 Cl  0  0  0  0  0  0  0  0  0  0  0  0
    4.6508    1.3158    0.0000 C   0  0  0  0  0  0  0  0  0  0  0  0
    4.6508    2.1408    0.0000 C   0  0  0  0  0  0  0  0  0  0  0  0
    3.9363    2.5533    0.0000 C   0  0  0  0  0  0  0  0  0  0  0  0
    3.9363    3.3783    0.0000 O   0  0  0  0  0  0  0  0  0  0  0  0
    3.2219    2.1408    0.0000 C   0  0  0  0  0  0  0  0  0  0  0  0
    3.2219    1.3158    0.0000 C   0  0  0  0  0  0  0  0  0  0  0  0
    2.5074    0.9033    0.0000 Cl  0  0  0  0  0  0  0  0  0  0  0  0
    3.9363    0.9033    0.0000 C   0  0  0  0  0  0  0  0  0  0  0  0
    3.9363    0.0783    0.0000 N   0  0  0  0  0  0  0  0  0  0  0  0
    3.2219   -0.3342    0.0000 C   0  0  0  0  0  0  0  0  0  0  0  0
    2.5074    0.0783    0.0000 C   0  0  0  0  0  0  0  0  0  0  0  0
    1.7929   -0.3342    0.0000 C   0  0  0  0  0  0  0  0  0  0  0  0
    1.7929   -1.1592    0.0000 C   0  0  0  0  0  0  0  0  0  0  0  0
    2.5074   -1.5717    0.0000 C   0  0  0  0  0  0  0  0  0  0  0  0
    3.2219   -1.1592    0.0000 C   0  0  0  0  0  0  0  0  0  0  0  0
    3.9363   -1.5717    0.0000 C   0  0  0  0  0  0  0  0  0  0  0  0
    3.9363   -2.3967    0.0000 C   0  0  0  0  0  0  0  0  0  0  0  0
    4.6508   -2.8092    0.0000 O   0  0  0  0  0  0  0  0  0  0  0  0
    3.2219   -2.8092    0.0000 O   0  0  0  0  0  0  0  0  0  0  0  0
  1  2  1  0  0  0  0
  3  2  1  0  0  0  0
  4  3  2  0  0  0  0
  4  5  1  0  0  0  0
  6  4  1  0  0  0  0
  7  6  2  0  0  0  0
  7  8  1  0  0  0  0
  9  7  1  0  0  0  0
  2  9  2  0  0  0  0
  9 10  1  0  0  0  0
 10 11  1  0  0  0  0
 12 11  2  0  0  0  0
 13 12  1  0  0  0  0
 14 13  2  0  0  0  0
 15 14  1  0  0  0  0
 16 15  2  0  0  0  0
 11 16  1  0  0  0  0
 16 17  1  0  0  0  0
 17 18  1  0  0  0  0
 18 19  2  0  0  0  0
 18 20  1  0  0  0  0
M  END
> <ChemID>
100098

> <CAS>
64118-84-9

> <Original_SMILES>
Oc1cc(Cl)c(Nc2ccccc2CC(O)=O)c(Cl)c1

> <preferred_name>
4'-Hydroxydiclofenac

> <dsstox_substance_id>
DTXSID40214326

> <dsstox_compound_id>
DTXCID40136817

> <Canonical_QSARr>
OC1C=C(Cl)C(NC2=CC=CC=C2CC(O)=O)=C(Cl)C=1

> <InChI_Code_QSARr>
InChI=1S/C14H11Cl2NO3/c15-10-6-9(18)7-11(16)14(10)17-12-4-2-1-3-8(12)5-13(19)20/h1-4,6-7,17-18H,5H2,(H,19,20)

> <InChI Key_QSARr>
KGVXVPRLBMWZLG-UHFFFAOYSA-N

> <Salt_Solvent>


> <Salt_Solvent_ID>
0

> <RT>
8.9

$$$$
