100002.0
  -INDIGO-01081610012D

  9  8  0  0  0  0  0  0  0  0999 V2000
    0.0000    0.0000    0.0000 C   0  0  0  0  0  0  0  0  0  0  0  0
    1.6000    0.0000    0.0000 N   0  0  0  0  0  0  0  0  0  0  0  0
    2.4000    1.3856    0.0000 H   0  0  0  0  0  0  0  0  0  0  0  0
    2.4000   -1.3856    0.0000 H   0  0  0  0  0  0  0  0  0  0  0  0
   -0.8000   -1.3856    0.0000 N   0  0  0  0  0  0  0  0  0  0  0  0
   -2.4000   -1.3856    0.0000 H   0  0  0  0  0  0  0  0  0  0  0  0
    0.0000   -2.7713    0.0000 H   0  0  0  0  0  0  0  0  0  0  0  0
   -0.8000    1.3856    0.0000 N   0  0  0  0  0  0  0  0  0  0  0  0
   -2.4000    1.3856    0.0000 H   0  0  0  0  0  0  0  0  0  0  0  0
  1  2  1  0  0  0  0
  2  3  1  0  0  0  0
  2  4  1  0  0  0  0
  1  5  1  0  0  0  0
  5  6  1  0  0  0  0
  5  7  1  0  0  0  0
  1  8  2  0  0  0  0
  8  9  1  0  0  0  0
M  END
> <ChemID>
100002.0

> <CAS>
50-01-1

> <CAS_checksum>
ValidCAS

> <NAME>
Guanidine hydrochloride

> <name_error>
Ok

> <preferred_name>
Guanidine monohydrochloride

> <iupac>


> <SMILES>
Cl.NC(N)=N

> <STAR_flag>
3 STAR

> <New STAR flag>
4 STAR: Smiles generated

> <Canonical_QSARr>
NC(N)=N

> <InChI_Code_QSARr>
InChI=1S/CH5N3/c2-1(3)4/h(H5,2,3,4)

> <InChI Key_QSARr>
ZRALSGWEFCBTJO-UHFFFAOYSA-N

> <Salt_Solvent>
Cl

> <Salt_Solvent_ID>
18179

> <MP>
182.3

> <EstMP>
144.18

> <ErrorMP>
-38.12

> <gsid>
58757

> <dsstox_substance_id>
DTXSID7058757

> <qc_level>
Public_High

> <dsstox_compound_id>
DTXCID4040763

> <Tr_1_Tst_0>
1

$$$$
100003.0
  -INDIGO-01081610012D

 57 60  0  0  0  0  0  0  0  0999 V2000
   -0.0000   -0.0001    0.0000 C   0  0  0  0  0  0  0  0  0  0  0  0
    0.9404    1.2944    0.0000 C   0  0  0  0  0  0  0  0  0  0  0  0
    2.0913    2.4059    0.0000 H   0  0  0  0  0  0  0  0  0  0  0  0
    1.1078    2.8857    0.0000 H   0  0  0  0  0  0  0  0  0  0  0  0
    2.4786    0.8534    0.0000 H   0  0  0  0  0  0  0  0  0  0  0  0
   -0.8001    1.3857    0.0000 C   0  0  0  0  0  0  0  0  0  0  0  0
    0.4256    2.4141    0.0000 H   0  0  0  0  0  0  0  0  0  0  0  0
   -1.0779    2.9613    0.0000 H   0  0  0  0  0  0  0  0  0  0  0  0
   -2.4000    1.3857    0.0000 C   0  0  0  0  0  0  0  0  0  0  0  0
   -2.1222    2.9613    0.0000 O   0  0  0  0  0  0  0  0  0  0  0  0
   -3.3478    3.9898    0.0000 H   0  0  0  0  0  0  0  0  0  0  0  0
   -3.4284    2.6113    0.0000 H   0  0  0  0  0  0  0  0  0  0  0  0
   -3.2001   -0.0001    0.0000 C   0  0  0  0  0  0  0  0  0  0  0  0
   -3.1761    0.9758    0.0000 F   0  0  0  0  0  0  0  0  0  0  0  0
   -2.4000   -1.3857    0.0000 C   0  0  0  0  0  0  0  0  0  0  0  0
   -3.2001   -2.7713    0.0000 C   0  0  0  0  0  0  0  0  0  0  0  0
   -4.8000   -2.7713    0.0000 C   0  0  0  0  0  0  0  0  0  0  0  0
   -5.6001   -1.3857    0.0000 C   0  0  0  0  0  0  0  0  0  0  0  0
   -7.2000   -1.3857    0.0000 C   0  0  0  0  0  0  0  0  0  0  0  0
   -8.0001   -2.7713    0.0000 H   0  0  0  0  0  0  0  0  0  0  0  0
   -8.0001   -0.0001    0.0000 C   0  0  0  0  0  0  0  0  0  0  0  0
   -9.6000   -0.0001    0.0000 O   0  0  0  0  0  0  0  0  0  0  0  0
   -7.2000    1.3857    0.0000 C   0  0  0  0  0  0  0  0  0  0  0  0
   -8.0001    2.7713    0.0000 H   0  0  0  0  0  0  0  0  0  0  0  0
   -5.6001    1.3857    0.0000 C   0  0  0  0  0  0  0  0  0  0  0  0
   -5.3222    2.9613    0.0000 H   0  0  0  0  0  0  0  0  0  0  0  0
   -4.8000   -0.0001    0.0000 C   0  0  0  0  0  0  0  0  0  0  0  0
   -4.3887    0.4902    0.0000 C   0  0  0  0  0  0  0  0  0  0  0  0
   -3.9999    1.3857    0.0000 H   0  0  0  0  0  0  0  0  0  0  0  0
   -4.9357    1.9938    0.0000 H   0  0  0  0  0  0  0  0  0  0  0  0
   -5.9886    0.4902    0.0000 H   0  0  0  0  0  0  0  0  0  0  0  0
   -6.3035   -3.3185    0.0000 H   0  0  0  0  0  0  0  0  0  0  0  0
   -4.5222   -4.3470    0.0000 H   0  0  0  0  0  0  0  0  0  0  0  0
   -3.4779   -4.3470    0.0000 H   0  0  0  0  0  0  0  0  0  0  0  0
   -1.9744   -3.7998    0.0000 H   0  0  0  0  0  0  0  0  0  0  0  0
   -1.5999   -2.7713    0.0000 H   0  0  0  0  0  0  0  0  0  0  0  0
   -0.8001   -1.3857    0.0000 C   0  0  0  0  0  0  0  0  0  0  0  0
   -0.6327   -2.9769    0.0000 H   0  0  0  0  0  0  0  0  0  0  0  0
    0.2707   -2.5746    0.0000 C   0  0  0  0  0  0  0  0  0  0  0  0
   -0.3801   -4.0364    0.0000 H   0  0  0  0  0  0  0  0  0  0  0  0
    1.0705   -3.9604    0.0000 H   0  0  0  0  0  0  0  0  0  0  0  0
    1.7323   -1.9239    0.0000 C   0  0  0  0  0  0  0  0  0  0  0  0
    2.2268   -3.4455    0.0000 C   0  0  0  0  0  0  0  0  0  0  0  0
    2.7212   -4.9673    0.0000 H   0  0  0  0  0  0  0  0  0  0  0  0
    3.7917   -3.7782    0.0000 H   0  0  0  0  0  0  0  0  0  0  0  0
    1.3787   -4.8024    0.0000 H   0  0  0  0  0  0  0  0  0  0  0  0
    3.2973   -1.5912    0.0000 H   0  0  0  0  0  0  0  0  0  0  0  0
    1.5650   -0.3327    0.0000 C   0  0  0  0  0  0  0  0  0  0  0  0
    1.7323    1.2586    0.0000 O   0  0  0  0  0  0  0  0  0  0  0  0
    3.1940    1.9093    0.0000 H   0  0  0  0  0  0  0  0  0  0  0  0
    3.1651   -0.3327    0.0000 C   0  0  0  0  0  0  0  0  0  0  0  0
    4.3908   -1.3611    0.0000 C   0  0  0  0  0  0  0  0  0  0  0  0
    5.6164   -2.3896    0.0000 O   0  0  0  0  0  0  0  0  0  0  0  0
    7.1199   -1.8423    0.0000 H   0  0  0  0  0  0  0  0  0  0  0  0
    5.4192   -0.1355    0.0000 H   0  0  0  0  0  0  0  0  0  0  0  0
    3.3623   -2.5868    0.0000 H   0  0  0  0  0  0  0  0  0  0  0  0
    3.9650    1.0530    0.0000 O   0  0  0  0  0  0  0  0  0  0  0  0
  1  2  1  0  0  0  0
  2  3  1  0  0  0  0
  2  4  1  0  0  0  0
  2  5  1  0  0  0  0
  1  6  1  0  0  0  0
  6  7  1  0  0  0  0
  6  8  1  0  0  0  0
  6  9  1  0  0  0  0
  9 10  1  0  0  0  0
 10 11  1  0  0  0  0
  9 12  1  0  0  0  0
  9 13  1  0  0  0  0
 13 14  1  0  0  0  0
 13 15  1  0  0  0  0
 15 16  1  0  0  0  0
 16 17  1  0  0  0  0
 17 18  1  0  0  0  0
 18 19  2  0  0  0  0
 19 20  1  0  0  0  0
 19 21  1  0  0  0  0
 21 22  2  0  0  0  0
 21 23  1  0  0  0  0
 23 24  1  0  0  0  0
 23 25  2  0  0  0  0
 25 26  1  0  0  0  0
 25 27  1  0  0  0  0
 27 18  1  0  0  0  0
 27 13  1  0  0  0  0
 27 28  1  0  0  0  0
 28 29  1  0  0  0  0
 28 30  1  0  0  0  0
 28 31  1  0  0  0  0
 17 32  1  0  0  0  0
 17 33  1  0  0  0  0
 16 34  1  0  0  0  0
 16 35  1  0  0  0  0
 15 36  1  0  0  0  0
 15 37  1  0  0  0  0
 37  1  1  0  0  0  0
 37 38  1  0  0  0  0
 37 39  1  0  0  0  0
 39 40  1  0  0  0  0
 39 41  1  0  0  0  0
 39 42  1  0  0  0  0
 42 43  1  0  0  0  0
 43 44  1  0  0  0  0
 43 45  1  0  0  0  0
 43 46  1  0  0  0  0
 42 47  1  0  0  0  0
 42 48  1  0  0  0  0
 48  1  1  0  0  0  0
 48 49  1  0  0  0  0
 49 50  1  0  0  0  0
 48 51  1  0  0  0  0
 51 52  1  0  0  0  0
 52 53  1  0  0  0  0
 53 54  1  0  0  0  0
 52 55  1  0  0  0  0
 52 56  1  0  0  0  0
 51 57  2  0  0  0  0
M  END
> <ChemID>
100003.0

> <CAS>
50-02-2, 378-44-9

> <CAS_checksum>
ValidCAS

> <NAME>
DEXAMETHASONE, BETAMETHASONE

> <name_error>
Warning: Structure is taken from ACD/Dictionary

> <preferred_name>
Dexamethasone

> <iupac>
(11beta,16alpha)-9-fluoro-11,17,21-trihydroxy-16-methylpregna-1,4-diene-3,20-dione

> <SMILES>
C[C@@H]1C[C@H]2[C@@H]3CCC4=CC(=O)C=C[C@]4(C)[C@@]3(F)[C@@H](O)C[C@]2(C)[C@@]1(O)C(=O)CO

> <STAR_flag>
3 STAR Enhanced Stereochemistry

> <New STAR flag>
4 STAR: Smiles generated

> <Canonical_QSARr>
CC1CC2C3CCC4=CC(=O)C=CC4(C)C3(F)C(O)CC2(C)C1(O)C(=O)CO

> <InChI_Code_QSARr>
InChI=1S/C22H29FO5/c1-12-8-16-15-5-4-13-9-14(25)6-7-19(13,2)21(15,23)17(26)10-20(16,3)22(12,28)18(27)11-24/h6-7,9,12,15-17,24,26,28H,4-5,8,10-11H2,1-3H3

> <InChI Key_QSARr>
UREBDLICKHMUKA-UHFFFAOYSA-N

> <Salt_Solvent>
?

> <Salt_Solvent_ID>


> <MP>
247.5

> <EstMP>
216.77

> <ErrorMP>
-30.729999999999997

> <gsid>
20384

> <dsstox_substance_id>
DTXSID3020384

> <qc_level>
DSSTox_High

> <dsstox_compound_id>
DTXCID10384

> <Tr_1_Tst_0>
1

$$$$
100004.0
  -INDIGO-01081610012D

 59 62  0  0  0  0  0  0  0  0999 V2000
   -0.0001   -0.0000    0.0000 C   0  0  0  0  0  0  0  0  0  0  0  0
    0.9403    1.2945    0.0000 C   0  0  0  0  0  0  0  0  0  0  0  0
    1.8810    2.5889    0.0000 H   0  0  0  0  0  0  0  0  0  0  0  0
    0.7036    1.9329    0.0000 H   0  0  0  0  0  0  0  0  0  0  0  0
    2.5317    1.1272    0.0000 H   0  0  0  0  0  0  0  0  0  0  0  0
   -0.8001    1.3856    0.0000 C   0  0  0  0  0  0  0  0  0  0  0  0
   -0.3762    1.9186    0.0000 H   0  0  0  0  0  0  0  0  0  0  0  0
   -1.0778    2.9613    0.0000 H   0  0  0  0  0  0  0  0  0  0  0  0
   -2.4000    1.3856    0.0000 C   0  0  0  0  0  0  0  0  0  0  0  0
   -3.2000    2.7713    0.0000 O   0  0  0  0  0  0  0  0  0  0  0  0
   -3.2000   -0.0000    0.0000 C   0  0  0  0  0  0  0  0  0  0  0  0
   -2.8801    0.5542    0.0000 H   0  0  0  0  0  0  0  0  0  0  0  0
   -2.4000   -1.3856    0.0000 C   0  0  0  0  0  0  0  0  0  0  0  0
   -3.2000   -2.7712    0.0000 C   0  0  0  0  0  0  0  0  0  0  0  0
   -4.7999   -2.7712    0.0000 C   0  0  0  0  0  0  0  0  0  0  0  0
   -5.5999   -1.3856    0.0000 C   0  0  0  0  0  0  0  0  0  0  0  0
   -7.2001   -1.3856    0.0000 C   0  0  0  0  0  0  0  0  0  0  0  0
   -7.9999   -2.7712    0.0000 H   0  0  0  0  0  0  0  0  0  0  0  0
   -7.9999   -0.0000    0.0000 C   0  0  0  0  0  0  0  0  0  0  0  0
   -9.6000   -0.0000    0.0000 O   0  0  0  0  0  0  0  0  0  0  0  0
   -7.2001    1.3856    0.0000 C   0  0  0  0  0  0  0  0  0  0  0  0
   -6.9221    2.9613    0.0000 H   0  0  0  0  0  0  0  0  0  0  0  0
   -8.7035    1.9329    0.0000 H   0  0  0  0  0  0  0  0  0  0  0  0
   -5.5999    1.3856    0.0000 C   0  0  0  0  0  0  0  0  0  0  0  0
   -5.0272    2.0578    0.0000 H   0  0  0  0  0  0  0  0  0  0  0  0
   -5.8780    2.9613    0.0000 H   0  0  0  0  0  0  0  0  0  0  0  0
   -4.7999   -0.0000    0.0000 C   0  0  0  0  0  0  0  0  0  0  0  0
   -4.4800    0.5542    0.0000 C   0  0  0  0  0  0  0  0  0  0  0  0
   -4.4299    1.4359    0.0000 H   0  0  0  0  0  0  0  0  0  0  0  0
   -3.8712    0.7521    0.0000 H   0  0  0  0  0  0  0  0  0  0  0  0
   -4.0001    1.3856    0.0000 H   0  0  0  0  0  0  0  0  0  0  0  0
   -6.3036   -3.3186    0.0000 H   0  0  0  0  0  0  0  0  0  0  0  0
   -4.5222   -4.3470    0.0000 H   0  0  0  0  0  0  0  0  0  0  0  0
   -3.4778   -4.3470    0.0000 H   0  0  0  0  0  0  0  0  0  0  0  0
   -1.9743   -3.7998    0.0000 H   0  0  0  0  0  0  0  0  0  0  0  0
   -1.5999   -2.7712    0.0000 H   0  0  0  0  0  0  0  0  0  0  0  0
   -0.8001   -1.3856    0.0000 C   0  0  0  0  0  0  0  0  0  0  0  0
   -0.9117   -2.9818    0.0000 H   0  0  0  0  0  0  0  0  0  0  0  0
    0.2706   -2.5746    0.0000 C   0  0  0  0  0  0  0  0  0  0  0  0
   -0.6241   -3.9011    0.0000 H   0  0  0  0  0  0  0  0  0  0  0  0
    1.0707   -3.9603    0.0000 H   0  0  0  0  0  0  0  0  0  0  0  0
    1.7322   -1.9239    0.0000 C   0  0  0  0  0  0  0  0  0  0  0  0
    2.2267   -3.4456    0.0000 H   0  0  0  0  0  0  0  0  0  0  0  0
    3.2972   -1.5913    0.0000 H   0  0  0  0  0  0  0  0  0  0  0  0
    1.5649   -0.3327    0.0000 C   0  0  0  0  0  0  0  0  0  0  0  0
    1.7322    1.2586    0.0000 O   0  0  0  0  0  0  0  0  0  0  0  0
    3.1941    1.9094    0.0000 H   0  0  0  0  0  0  0  0  0  0  0  0
    3.1651   -0.3327    0.0000 C   0  0  0  0  0  0  0  0  0  0  0  0
    3.9651    1.0529    0.0000 O   0  0  0  0  0  0  0  0  0  0  0  0
    4.3908   -1.3611    0.0000 C   0  0  0  0  0  0  0  0  0  0  0  0
    5.4191   -0.1354    0.0000 O   0  0  0  0  0  0  0  0  0  0  0  0
    6.9949   -0.4133    0.0000 C   0  0  0  0  0  0  0  0  0  0  0  0
    8.0232    0.8124    0.0000 C   0  0  0  0  0  0  0  0  0  0  0  0
    9.0518    2.0381    0.0000 H   0  0  0  0  0  0  0  0  0  0  0  0
    9.5990    0.5346    0.0000 H   0  0  0  0  0  0  0  0  0  0  0  0
    7.4759    2.3159    0.0000 H   0  0  0  0  0  0  0  0  0  0  0  0
    7.5422   -1.9168    0.0000 O   0  0  0  0  0  0  0  0  0  0  0  0
    5.6162   -2.3896    0.0000 H   0  0  0  0  0  0  0  0  0  0  0  0
    3.3622   -2.5868    0.0000 H   0  0  0  0  0  0  0  0  0  0  0  0
  1  2  1  0  0  0  0
  2  3  1  0  0  0  0
  2  4  1  0  0  0  0
  2  5  1  0  0  0  0
  1  6  1  0  0  0  0
  6  7  1  0  0  0  0
  6  8  1  0  0  0  0
  6  9  1  0  0  0  0
  9 10  2  0  0  0  0
  9 11  1  0  0  0  0
 11 12  1  0  0  0  0
 11 13  1  0  0  0  0
 13 14  1  0  0  0  0
 14 15  1  0  0  0  0
 15 16  1  0  0  0  0
 16 17  2  0  0  0  0
 17 18  1  0  0  0  0
 17 19  1  0  0  0  0
 19 20  2  0  0  0  0
 19 21  1  0  0  0  0
 21 22  1  0  0  0  0
 21 23  1  0  0  0  0
 21 24  1  0  0  0  0
 24 25  1  0  0  0  0
 24 26  1  0  0  0  0
 24 27  1  0  0  0  0
 27 16  1  0  0  0  0
 27 11  1  0  0  0  0
 27 28  1  0  0  0  0
 28 29  1  0  0  0  0
 28 30  1  0  0  0  0
 28 31  1  0  0  0  0
 15 32  1  0  0  0  0
 15 33  1  0  0  0  0
 14 34  1  0  0  0  0
 14 35  1  0  0  0  0
 13 36  1  0  0  0  0
 13 37  1  0  0  0  0
 37  1  1  0  0  0  0
 37 38  1  0  0  0  0
 37 39  1  0  0  0  0
 39 40  1  0  0  0  0
 39 41  1  0  0  0  0
 39 42  1  0  0  0  0
 42 43  1  0  0  0  0
 42 44  1  0  0  0  0
 42 45  1  0  0  0  0
 45  1  1  0  0  0  0
 45 46  1  0  0  0  0
 46 47  1  0  0  0  0
 45 48  1  0  0  0  0
 48 49  2  0  0  0  0
 48 50  1  0  0  0  0
 50 51  1  0  0  0  0
 51 52  1  0  0  0  0
 52 53  1  0  0  0  0
 53 54  1  0  0  0  0
 53 55  1  0  0  0  0
 53 56  1  0  0  0  0
 52 57  2  0  0  0  0
 50 58  1  0  0  0  0
 50 59  1  0  0  0  0
M  END
> <ChemID>
100004.0

> <CAS>
50-04-4

> <CAS_checksum>
ValidCAS

> <NAME>
CORTISONE ACETATE

> <name_error>
Warning: Structure is taken from ACD/Dictionary

> <preferred_name>
Cortisone acetate

> <iupac>
17-hydroxy-3,11,20-trioxopregn-4-en-21-yl acetate

> <SMILES>
CC(=O)OCC(=O)[C@@]1(O)CC[C@H]2[C@@H]3CCC4=CC(=O)CC[C@]4(C)[C@H]3C(=O)C[C@]12C

> <STAR_flag>
3 STAR Enhanced Stereochemistry

> <New STAR flag>
4 STAR: Smiles generated

> <Canonical_QSARr>
CC(=O)OCC(=O)C1(O)CCC2C3CCC4=CC(=O)CCC4(C)C3C(=O)CC12C

> <InChI_Code_QSARr>
InChI=1S/C23H30O6/c1-13(24)29-12-19(27)23(28)9-7-17-16-5-4-14-10-15(25)6-8-21(14,2)20(16)18(26)11-22(17,23)3/h10,16-17,20,28H,4-9,11-12H2,1-3H3

> <InChI Key_QSARr>
ITRJWOMZKQRYTA-UHFFFAOYSA-N

> <Salt_Solvent>
?

> <Salt_Solvent_ID>


> <MP>
222.0

> <EstMP>
215.62

> <ErrorMP>
-6.38

> <gsid>
22858

> <dsstox_substance_id>
DTXSID0022858

> <qc_level>
DSSTox_Low

> <dsstox_compound_id>
DTXCID502858

> <Tr_1_Tst_0>
1

$$$$
100005.0
  -INDIGO-01081610012D

 29 30  0  0  0  0  0  0  0  0999 V2000
    2.4001    1.3856    0.0000 O   0  0  0  0  0  0  0  0  0  0  0  0
    0.8000    1.3856    0.0000 C   0  0  0  0  0  0  0  0  0  0  0  0
   -0.0000    2.7713    0.0000 N   0  0  0  0  0  0  0  0  0  0  0  0
    0.8000    4.1569    0.0000 H   0  0  0  0  0  0  0  0  0  0  0  0
   -1.6001    2.7713    0.0000 C   0  0  0  0  0  0  0  0  0  0  0  0
   -2.4000    4.1569    0.0000 O   0  0  0  0  0  0  0  0  0  0  0  0
   -2.4000    1.3856    0.0000 N   0  0  0  0  0  0  0  0  0  0  0  0
   -4.0000    1.3856    0.0000 H   0  0  0  0  0  0  0  0  0  0  0  0
   -1.6001   -0.0000    0.0000 C   0  0  0  0  0  0  0  0  0  0  0  0
   -2.1856   -0.5856    0.0000 O   0  0  0  0  0  0  0  0  0  0  0  0
   -0.0000   -0.0000    0.0000 C   0  0  0  0  0  0  0  0  0  0  0  0
   -0.8000   -1.3857    0.0000 C   0  0  0  0  0  0  0  0  0  0  0  0
   -1.6001   -2.7713    0.0000 C   0  0  0  0  0  0  0  0  0  0  0  0
   -2.4000   -4.1569    0.0000 H   0  0  0  0  0  0  0  0  0  0  0  0
   -3.2001   -2.7713    0.0000 H   0  0  0  0  0  0  0  0  0  0  0  0
   -0.8000   -4.1569    0.0000 H   0  0  0  0  0  0  0  0  0  0  0  0
   -1.6282   -1.3857    0.0000 H   0  0  0  0  0  0  0  0  0  0  0  0
    0.5857   -2.1856    0.0000 H   0  0  0  0  0  0  0  0  0  0  0  0
    1.5036   -0.5473    0.0000 C   0  0  0  0  0  0  0  0  0  0  0  0
    1.7814   -2.1229    0.0000 C   0  0  0  0  0  0  0  0  0  0  0  0
    0.5557   -3.1514    0.0000 H   0  0  0  0  0  0  0  0  0  0  0  0
    3.2848   -2.6702    0.0000 C   0  0  0  0  0  0  0  0  0  0  0  0
    3.5627   -4.2458    0.0000 H   0  0  0  0  0  0  0  0  0  0  0  0
    4.5106   -1.6417    0.0000 C   0  0  0  0  0  0  0  0  0  0  0  0
    6.0140   -2.1890    0.0000 H   0  0  0  0  0  0  0  0  0  0  0  0
    4.2326   -0.0659    0.0000 C   0  0  0  0  0  0  0  0  0  0  0  0
    5.4583    0.9625    0.0000 H   0  0  0  0  0  0  0  0  0  0  0  0
    2.7292    0.4812    0.0000 C   0  0  0  0  0  0  0  0  0  0  0  0
    3.2764    1.9848    0.0000 H   0  0  0  0  0  0  0  0  0  0  0  0
  1  2  2  0  0  0  0
  2  3  1  0  0  0  0
  3  4  1  0  0  0  0
  3  5  1  0  0  0  0
  5  6  2  0  0  0  0
  5  7  1  0  0  0  0
  7  8  1  0  0  0  0
  7  9  1  0  0  0  0
  9 10  2  0  0  0  0
  9 11  1  0  0  0  0
 11  2  1  0  0  0  0
 11 12  1  0  0  0  0
 12 13  1  0  0  0  0
 13 14  1  0  0  0  0
 13 15  1  0  0  0  0
 13 16  1  0  0  0  0
 12 17  1  0  0  0  0
 12 18  1  0  0  0  0
 11 19  1  0  0  0  0
 19 20  4  0  0  0  0
 20 21  1  0  0  0  0
 20 22  4  0  0  0  0
 22 23  1  0  0  0  0
 22 24  4  0  0  0  0
 24 25  1  0  0  0  0
 24 26  4  0  0  0  0
 26 27  1  0  0  0  0
 26 28  4  0  0  0  0
 28 19  4  0  0  0  0
 28 29  1  0  0  0  0
M  END
> <ChemID>
100005.0

> <CAS>
50-06-6

> <CAS_checksum>
ValidCAS

> <NAME>
PHENOBARBITAL

> <name_error>
Warning: Structure is taken from ACD/Dictionary

> <preferred_name>
Phenobarbital

> <iupac>
5-ethyl-5-phenylpyrimidine-2,4,6(1H,3H,5H)-trione

> <SMILES>
CCC1(c2ccccc2)C(=O)NC(=O)NC1=O

> <STAR_flag>
3 STAR

> <New STAR flag>
4 STAR: Smiles generated

> <Canonical_QSARr>
CCC1(c2ccccc2)C(=O)NC(=O)NC1=O

> <InChI_Code_QSARr>
InChI=1S/C12H12N2O3/c1-2-12(8-6-4-3-5-7-8)9(15)13-11(17)14-10(12)16/h3-7H,2H2,1H3,(H2,13,14,15,16,17)

> <InChI Key_QSARr>
DDBREPKUVSBGFI-UHFFFAOYSA-N

> <Salt_Solvent>
?

> <Salt_Solvent_ID>


> <MP>
174.0

> <EstMP>
244.73

> <ErrorMP>
70.73

> <gsid>
21122

> <dsstox_substance_id>
DTXSID5021122

> <qc_level>
DSSTox_Low

> <dsstox_compound_id>
DTXCID701122

> <Tr_1_Tst_0>
0

$$$$
100006.0
  -INDIGO-01081610012D

 59 60  0  0  0  0  0  0  0  0999 V2000
   -0.7662   -2.1049    0.0000 C   0  0  0  0  0  0  0  0  0  0  0  0
   -0.2189   -0.6014    0.0000 C   0  0  0  0  0  0  0  0  0  0  0  0
   -0.0001    0.0000    0.0000 N   0  0  0  0  0  0  0  0  0  0  0  0
    1.5034   -0.5472    0.0000 C   0  0  0  0  0  0  0  0  0  0  0  0
    2.8891   -1.3473    0.0000 C   0  0  0  0  0  0  0  0  0  0  0  0
    4.2747   -2.1473    0.0000 O   0  0  0  0  0  0  0  0  0  0  0  0
    5.6604   -1.3473    0.0000 C   0  0  0  0  0  0  0  0  0  0  0  0
    7.1638   -1.8945    0.0000 C   0  0  0  0  0  0  0  0  0  0  0  0
    7.7111   -0.3909    0.0000 C   0  0  0  0  0  0  0  0  0  0  0  0
    6.9111    0.9948    0.0000 C   0  0  0  0  0  0  0  0  0  0  0  0
    5.3354    1.2726    0.0000 H   0  0  0  0  0  0  0  0  0  0  0  0
    7.7111    2.3803    0.0000 C   0  0  0  0  0  0  0  0  0  0  0  0
    6.9111    3.7660    0.0000 H   0  0  0  0  0  0  0  0  0  0  0  0
    9.3111    2.3803    0.0000 C   0  0  0  0  0  0  0  0  0  0  0  0
   10.1112    3.7660    0.0000 H   0  0  0  0  0  0  0  0  0  0  0  0
   10.1112    0.9948    0.0000 C   0  0  0  0  0  0  0  0  0  0  0  0
   11.7112    0.9948    0.0000 H   0  0  0  0  0  0  0  0  0  0  0  0
    9.3111   -0.3909    0.0000 C   0  0  0  0  0  0  0  0  0  0  0  0
   10.1112   -1.7766    0.0000 H   0  0  0  0  0  0  0  0  0  0  0  0
    6.8861   -3.4702    0.0000 C   0  0  0  0  0  0  0  0  0  0  0  0
    6.0861   -4.8557    0.0000 C   0  0  0  0  0  0  0  0  0  0  0  0
    4.8604   -3.8272    0.0000 H   0  0  0  0  0  0  0  0  0  0  0  0
    4.8604   -5.8842    0.0000 H   0  0  0  0  0  0  0  0  0  0  0  0
    6.8861   -6.2414    0.0000 C   0  0  0  0  0  0  0  0  0  0  0  0
    5.3826   -6.7886    0.0000 H   0  0  0  0  0  0  0  0  0  0  0  0
    7.1638   -7.8171    0.0000 H   0  0  0  0  0  0  0  0  0  0  0  0
    8.4861   -6.2414    0.0000 C   0  0  0  0  0  0  0  0  0  0  0  0
    8.2082   -7.8171    0.0000 H   0  0  0  0  0  0  0  0  0  0  0  0
    9.9896   -6.7886    0.0000 H   0  0  0  0  0  0  0  0  0  0  0  0
    9.2861   -4.8557    0.0000 C   0  0  0  0  0  0  0  0  0  0  0  0
   10.5117   -5.8842    0.0000 H   0  0  0  0  0  0  0  0  0  0  0  0
   10.5117   -3.8272    0.0000 H   0  0  0  0  0  0  0  0  0  0  0  0
    8.4861   -3.4702    0.0000 C   0  0  0  0  0  0  0  0  0  0  0  0
    8.5495   -4.2944    0.0000 H   0  0  0  0  0  0  0  0  0  0  0  0
    8.2082   -1.8945    0.0000 H   0  0  0  0  0  0  0  0  0  0  0  0
    5.3826   -2.9228    0.0000 H   0  0  0  0  0  0  0  0  0  0  0  0
    8.5495   -2.6945    0.0000 O   0  0  0  0  0  0  0  0  0  0  0  0
    9.3661   -2.8240    0.0000 H   0  0  0  0  0  0  0  0  0  0  0  0
    5.6604    0.2528    0.0000 O   0  0  0  0  0  0  0  0  0  0  0  0
    2.0890   -2.7328    0.0000 H   0  0  0  0  0  0  0  0  0  0  0  0
    3.6891    0.0384    0.0000 H   0  0  0  0  0  0  0  0  0  0  0  0
    1.1668   -1.4014    0.0000 H   0  0  0  0  0  0  0  0  0  0  0  0
    2.3034    0.8383    0.0000 H   0  0  0  0  0  0  0  0  0  0  0  0
   -1.5036    0.5472    0.0000 C   0  0  0  0  0  0  0  0  0  0  0  0
   -3.0070    1.0944    0.0000 C   0  0  0  0  0  0  0  0  0  0  0  0
   -4.5105    1.6416    0.0000 H   0  0  0  0  0  0  0  0  0  0  0  0
   -3.2848    2.6701    0.0000 H   0  0  0  0  0  0  0  0  0  0  0  0
   -4.2328    0.0660    0.0000 H   0  0  0  0  0  0  0  0  0  0  0  0
   -2.7291   -0.4813    0.0000 H   0  0  0  0  0  0  0  0  0  0  0  0
   -0.9563    2.0508    0.0000 H   0  0  0  0  0  0  0  0  0  0  0  0
    0.5472    1.5034    0.0000 C   0  0  0  0  0  0  0  0  0  0  0  0
    1.0945    3.0070    0.0000 H   0  0  0  0  0  0  0  0  0  0  0  0
   -0.2528    2.8891    0.0000 H   0  0  0  0  0  0  0  0  0  0  0  0
    2.1230    1.7813    0.0000 H   0  0  0  0  0  0  0  0  0  0  0  0
   -1.7947   -0.3236    0.0000 H   0  0  0  0  0  0  0  0  0  0  0  0
    0.2489   -1.3913    0.0000 H   0  0  0  0  0  0  0  0  0  0  0  0
   -1.3135   -3.6084    0.0000 H   0  0  0  0  0  0  0  0  0  0  0  0
    0.2623   -3.3306    0.0000 H   0  0  0  0  0  0  0  0  0  0  0  0
   -2.3419   -2.3827    0.0000 H   0  0  0  0  0  0  0  0  0  0  0  0
  1  2  1  0  0  0  0
  2  3  1  0  0  0  0
  3  4  1  0  0  0  0
  4  5  1  0  0  0  0
  5  6  1  0  0  0  0
  6  7  1  0  0  0  0
  7  8  1  0  0  0  0
  8  9  1  0  0  0  0
  9 10  4  0  0  0  0
 10 11  1  0  0  0  0
 10 12  4  0  0  0  0
 12 13  1  0  0  0  0
 12 14  4  0  0  0  0
 14 15  1  0  0  0  0
 14 16  4  0  0  0  0
 16 17  1  0  0  0  0
 16 18  4  0  0  0  0
 18  9  4  0  0  0  0
 18 19  1  0  0  0  0
  8 20  1  0  0  0  0
 20 21  1  0  0  0  0
 21 22  1  0  0  0  0
 21 23  1  0  0  0  0
 21 24  1  0  0  0  0
 24 25  1  0  0  0  0
 24 26  1  0  0  0  0
 24 27  1  0  0  0  0
 27 28  1  0  0  0  0
 27 29  1  0  0  0  0
 27 30  1  0  0  0  0
 30 31  1  0  0  0  0
 30 32  1  0  0  0  0
 30 33  1  0  0  0  0
 33 20  1  0  0  0  0
 33 34  1  0  0  0  0
 33 35  1  0  0  0  0
 20 36  1  0  0  0  0
  8 37  1  0  0  0  0
 37 38  1  0  0  0  0
  7 39  2  0  0  0  0
  5 40  1  0  0  0  0
  5 41  1  0  0  0  0
  4 42  1  0  0  0  0
  4 43  1  0  0  0  0
  3 44  1  0  0  0  0
 44 45  1  0  0  0  0
 45 46  1  0  0  0  0
 45 47  1  0  0  0  0
 45 48  1  0  0  0  0
 44 49  1  0  0  0  0
 44 50  1  0  0  0  0
  3 51  1  0  0  0  0
 51 52  1  0  0  0  0
 51 53  1  0  0  0  0
 51 54  1  0  0  0  0
  2 55  1  0  0  0  0
  2 56  1  0  0  0  0
  1 57  1  0  0  0  0
  1 58  1  0  0  0  0
  1 59  1  0  0  0  0
M  CHG  1   3   1
M  END
> <ChemID>
100006.0

> <CAS>
50-10-2

> <CAS_checksum>
ValidCAS

> <NAME>
Oxyphenonium bromide

> <name_error>
Warning: Structure is taken from ACD/Dictionary

> <preferred_name>
Oxyphenonium bromide

> <iupac>
2-{[cyclohexyl(hydroxy)phenylacetyl]oxy}-N,N-diethyl-N-methylethanaminium bromide

> <SMILES>
[Br-].C[N+](CCOC(=O)C(O)(C1CCCCC1)c1ccccc1)(CC)CC

> <STAR_flag>
3 STAR Enhanced Stereochemistry

> <New STAR flag>
4 STAR: Smiles generated

> <Canonical_QSARr>
C[N+](CCOC(=O)C(O)(C1CCCCC1)c1ccccc1)(CC)CC

> <InChI_Code_QSARr>
InChI=1S/C21H34NO3/c1-4-22(3,5-2)16-17-25-20(23)21(24,18-12-8-6-9-13-18)19-14-10-7-11-15-19/h6,8-9,12-13,19,24H,4-5,7,10-11,14-17H2,1-3H3/q+1

> <InChI Key_QSARr>
GFRUPHOKLBPHTQ-UHFFFAOYSA-N

> <Salt_Solvent>
[Br-]

> <Salt_Solvent_ID>
1731

> <MP>
191.5

> <EstMP>
264.86

> <ErrorMP>
73.36

> <gsid>
45632

> <dsstox_substance_id>
DTXSID4045632

> <qc_level>
DSSTox_Low

> <dsstox_compound_id>
DTXCID2025632

> <Tr_1_Tst_0>
1

$$$$
100007.0
  -INDIGO-01081610012D

 28 28  0  0  0  0  0  0  0  0999 V2000
   -0.0000    0.0000    0.0000 C   0  0  0  0  0  0  0  0  0  0  0  0
   -0.8000    1.3857    0.0000 C   0  0  0  0  0  0  0  0  0  0  0  0
   -0.2527    2.8892    0.0000 O   0  0  0  0  0  0  0  0  0  0  0  0
   -2.4000    1.3857    0.0000 N   0  0  0  0  0  0  0  0  0  0  0  0
   -3.2000    2.7712    0.0000 C   0  0  0  0  0  0  0  0  0  0  0  0
   -4.0000    4.1569    0.0000 H   0  0  0  0  0  0  0  0  0  0  0  0
   -4.8000    2.7712    0.0000 H   0  0  0  0  0  0  0  0  0  0  0  0
   -2.4000    4.1569    0.0000 H   0  0  0  0  0  0  0  0  0  0  0  0
   -3.2000    0.0000    0.0000 C   0  0  0  0  0  0  0  0  0  0  0  0
   -4.8000    0.0000    0.0000 O   0  0  0  0  0  0  0  0  0  0  0  0
   -2.4000   -1.3857    0.0000 N   0  0  0  0  0  0  0  0  0  0  0  0
   -3.2000   -2.7712    0.0000 H   0  0  0  0  0  0  0  0  0  0  0  0
   -0.8000   -1.3857    0.0000 C   0  0  0  0  0  0  0  0  0  0  0  0
   -0.5221   -2.9613    0.0000 O   0  0  0  0  0  0  0  0  0  0  0  0
    1.2257   -1.0285    0.0000 C   0  0  0  0  0  0  0  0  0  0  0  0
    2.4514   -2.0569    0.0000 C   0  0  0  0  0  0  0  0  0  0  0  0
    3.6771   -3.0854    0.0000 H   0  0  0  0  0  0  0  0  0  0  0  0
    2.1735   -3.6326    0.0000 H   0  0  0  0  0  0  0  0  0  0  0  0
    3.9549   -1.5096    0.0000 H   0  0  0  0  0  0  0  0  0  0  0  0
    2.1857   -0.5856    0.0000 H   0  0  0  0  0  0  0  0  0  0  0  0
    0.1972   -2.2542    0.0000 H   0  0  0  0  0  0  0  0  0  0  0  0
    1.3856    0.8001    0.0000 C   0  0  0  0  0  0  0  0  0  0  0  0
    2.7713    1.6000    0.0000 C   0  0  0  0  0  0  0  0  0  0  0  0
    4.1569    2.4000    0.0000 H   0  0  0  0  0  0  0  0  0  0  0  0
    4.1569    0.8001    0.0000 H   0  0  0  0  0  0  0  0  0  0  0  0
    2.7713    3.2000    0.0000 H   0  0  0  0  0  0  0  0  0  0  0  0
    2.2541    0.1972    0.0000 H   0  0  0  0  0  0  0  0  0  0  0  0
    0.5856    2.1856    0.0000 H   0  0  0  0  0  0  0  0  0  0  0  0
  1  2  1  0  0  0  0
  2  3  2  0  0  0  0
  2  4  1  0  0  0  0
  4  5  1  0  0  0  0
  5  6  1  0  0  0  0
  5  7  1  0  0  0  0
  5  8  1  0  0  0  0
  4  9  1  0  0  0  0
  9 10  2  0  0  0  0
  9 11  1  0  0  0  0
 11 12  1  0  0  0  0
 11 13  1  0  0  0  0
 13  1  1  0  0  0  0
 13 14  2  0  0  0  0
  1 15  1  0  0  0  0
 15 16  1  0  0  0  0
 16 17  1  0  0  0  0
 16 18  1  0  0  0  0
 16 19  1  0  0  0  0
 15 20  1  0  0  0  0
 15 21  1  0  0  0  0
  1 22  1  0  0  0  0
 22 23  1  0  0  0  0
 23 24  1  0  0  0  0
 23 25  1  0  0  0  0
 23 26  1  0  0  0  0
 22 27  1  0  0  0  0
 22 28  1  0  0  0  0
M  END
> <ChemID>
100007.0

> <CAS>
50-11-3

> <CAS_checksum>
ValidCAS

> <NAME>
METHARBITAL

> <name_error>
Warning: Structure is taken from ACD/Dictionary

> <preferred_name>
Metharbital

> <iupac>
5,5-diethyl-1-methylpyrimidine-2,4,6(1H,3H,5H)-trione

> <SMILES>
CN1C(=O)NC(=O)C(CC)(CC)C1=O

> <STAR_flag>
3 STAR

> <New STAR flag>
4 STAR: Smiles generated

> <Canonical_QSARr>
CN1C(=O)NC(=O)C(CC)(CC)C1=O

> <InChI_Code_QSARr>
InChI=1S/C9H14N2O3/c1-4-9(5-2)6(12)10-8(14)11(3)7(9)13/h4-5H2,1-3H3,(H,10,12,14)

> <InChI Key_QSARr>
FWJKNZONDWOGMI-UHFFFAOYSA-N

> <Salt_Solvent>
?

> <Salt_Solvent_ID>


> <MP>
150.5

> <EstMP>
206.43

> <ErrorMP>
55.93

> <gsid>
23280

> <dsstox_substance_id>
DTXSID6023280

> <qc_level>
DSSTox_Low

> <dsstox_compound_id>
DTXCID103280

> <Tr_1_Tst_0>
1

$$$$
100008.0
  -INDIGO-01081610012D

 30 31  0  0  0  0  0  0  0  0999 V2000
    3.2948    2.6579    0.0000 C   0  0  0  0  0  0  0  0  0  0  0  0
    2.4470    1.3010    0.0000 C   0  0  0  0  0  0  0  0  0  0  0  0
    3.4319    0.0403    0.0000 H   0  0  0  0  0  0  0  0  0  0  0  0
    0.8478    1.3569    0.0000 C   0  0  0  0  0  0  0  0  0  0  0  0
   -0.0000   -0.0000    0.0000 C   0  0  0  0  0  0  0  0  0  0  0  0
   -1.0706    1.1890    0.0000 C   0  0  0  0  0  0  0  0  0  0  0  0
   -1.5651    2.7107    0.0000 O   0  0  0  0  0  0  0  0  0  0  0  0
   -2.5323    0.5383    0.0000 N   0  0  0  0  0  0  0  0  0  0  0  0
   -3.9179    1.3383    0.0000 C   0  0  0  0  0  0  0  0  0  0  0  0
   -5.3036    2.1383    0.0000 H   0  0  0  0  0  0  0  0  0  0  0  0
   -5.3036    0.5383    0.0000 H   0  0  0  0  0  0  0  0  0  0  0  0
   -3.9179    2.9383    0.0000 H   0  0  0  0  0  0  0  0  0  0  0  0
   -2.3650   -1.0530    0.0000 C   0  0  0  0  0  0  0  0  0  0  0  0
   -3.5541   -2.1236    0.0000 O   0  0  0  0  0  0  0  0  0  0  0  0
   -0.8000   -1.3857    0.0000 N   0  0  0  0  0  0  0  0  0  0  0  0
   -0.4130   -2.9381    0.0000 H   0  0  0  0  0  0  0  0  0  0  0  0
    1.2944   -0.9404    0.0000 C   0  0  0  0  0  0  0  0  0  0  0  0
    2.5889   -1.8809    0.0000 C   0  0  0  0  0  0  0  0  0  0  0  0
    3.8833   -2.8213    0.0000 H   0  0  0  0  0  0  0  0  0  0  0  0
    2.4216   -3.4721    0.0000 H   0  0  0  0  0  0  0  0  0  0  0  0
    4.0506   -1.2301    0.0000 H   0  0  0  0  0  0  0  0  0  0  0  0
    0.3540   -2.2349    0.0000 H   0  0  0  0  0  0  0  0  0  0  0  0
    2.2349    0.3539    0.0000 H   0  0  0  0  0  0  0  0  0  0  0  0
    0.0967    2.7696    0.0000 C   0  0  0  0  0  0  0  0  0  0  0  0
   -1.0924    3.8402    0.0000 H   0  0  0  0  0  0  0  0  0  0  0  0
    0.9446    4.1265    0.0000 C   0  0  0  0  0  0  0  0  0  0  0  0
    0.1934    5.5392    0.0000 H   0  0  0  0  0  0  0  0  0  0  0  0
    2.5436    4.0706    0.0000 C   0  0  0  0  0  0  0  0  0  0  0  0
    3.3915    5.4275    0.0000 H   0  0  0  0  0  0  0  0  0  0  0  0
    4.8938    2.6021    0.0000 H   0  0  0  0  0  0  0  0  0  0  0  0
  1  2  4  0  0  0  0
  2  3  1  0  0  0  0
  2  4  4  0  0  0  0
  4  5  1  0  0  0  0
  5  6  1  0  0  0  0
  6  7  2  0  0  0  0
  6  8  1  0  0  0  0
  8  9  1  0  0  0  0
  9 10  1  0  0  0  0
  9 11  1  0  0  0  0
  9 12  1  0  0  0  0
  8 13  1  0  0  0  0
 13 14  2  0  0  0  0
 13 15  1  0  0  0  0
 15  5  1  0  0  0  0
 15 16  1  0  0  0  0
  5 17  1  0  0  0  0
 17 18  1  0  0  0  0
 18 19  1  0  0  0  0
 18 20  1  0  0  0  0
 18 21  1  0  0  0  0
 17 22  1  0  0  0  0
 17 23  1  0  0  0  0
  4 24  4  0  0  0  0
 24 25  1  0  0  0  0
 24 26  4  0  0  0  0
 26 27  1  0  0  0  0
 26 28  4  0  0  0  0
 28  1  4  0  0  0  0
 28 29  1  0  0  0  0
  1 30  1  0  0  0  0
M  END
> <ChemID>
100008.0

> <CAS>
50-12-4

> <CAS_checksum>
ValidCAS

> <NAME>
MEPHENYTOIN

> <name_error>
Warning: Structure is taken from ACD/Dictionary

> <preferred_name>
Mephenytoin

> <iupac>
5-ethyl-3-methyl-5-phenylimidazolidine-2,4-dione

> <SMILES>
CCC1(NC(=O)N(C)C1=O)c1ccccc1

> <STAR_flag>
3 STAR

> <New STAR flag>
4 STAR: Smiles generated

> <Canonical_QSARr>
CCC1(NC(=O)N(C)C1=O)c1ccccc1

> <InChI_Code_QSARr>
InChI=1S/C12H14N2O2/c1-3-12(9-7-5-4-6-8-9)10(15)14(2)11(16)13-12/h4-8H,3H2,1-2H3,(H,13,16)

> <InChI Key_QSARr>
GMHKMTDVRCWUDX-UHFFFAOYSA-N

> <Salt_Solvent>
?

> <Salt_Solvent_ID>


> <MP>
136.5

> <EstMP>
179.82

> <ErrorMP>
43.32

> <gsid>
23257

> <dsstox_substance_id>
DTXSID9023257

> <qc_level>
DSSTox_High

> <dsstox_compound_id>
DTXCID003257

> <Tr_1_Tst_0>
1

$$$$
100010.0
  -INDIGO-01081610012D

 73 75  0  0  0  0  0  0  0  0999 V2000
   -0.0001   -0.0001    0.0000 C   0  0  0  0  0  0  0  0  0  0  0  0
    0.7014    1.4381    0.0000 C   0  0  0  0  0  0  0  0  0  0  0  0
    1.4029    2.8761    0.0000 H   0  0  0  0  0  0  0  0  0  0  0  0
    0.5856    2.1856    0.0000 H   0  0  0  0  0  0  0  0  0  0  0  0
    2.2540    1.8251    0.0000 H   0  0  0  0  0  0  0  0  0  0  0  0
   -0.8002    1.3857    0.0000 C   0  0  0  0  0  0  0  0  0  0  0  0
   -0.4954    2.0781    0.0000 H   0  0  0  0  0  0  0  0  0  0  0  0
   -1.0779    2.9613    0.0000 H   0  0  0  0  0  0  0  0  0  0  0  0
   -2.3999    1.3857    0.0000 C   0  0  0  0  0  0  0  0  0  0  0  0
   -2.1221    2.9613    0.0000 H   0  0  0  0  0  0  0  0  0  0  0  0
   -3.9037    1.9328    0.0000 H   0  0  0  0  0  0  0  0  0  0  0  0
   -3.1999   -0.0001    0.0000 C   0  0  0  0  0  0  0  0  0  0  0  0
   -4.4256    1.0284    0.0000 H   0  0  0  0  0  0  0  0  0  0  0  0
   -4.4256   -1.0284    0.0000 H   0  0  0  0  0  0  0  0  0  0  0  0
   -2.3999   -1.3857    0.0000 C   0  0  0  0  0  0  0  0  0  0  0  0
   -3.1999   -2.7713    0.0000 C   0  0  0  0  0  0  0  0  0  0  0  0
   -4.7999   -2.7713    0.0000 C   0  0  0  0  0  0  0  0  0  0  0  0
   -5.5999   -4.1568    0.0000 C   0  0  0  0  0  0  0  0  0  0  0  0
   -4.7999   -5.5426    0.0000 C   0  0  0  0  0  0  0  0  0  0  0  0
   -3.5742   -4.5141    0.0000 H   0  0  0  0  0  0  0  0  0  0  0  0
   -3.5742   -6.5709    0.0000 H   0  0  0  0  0  0  0  0  0  0  0  0
   -5.5999   -6.9282    0.0000 C   0  0  0  0  0  0  0  0  0  0  0  0
   -5.8777   -8.5038    0.0000 O   0  0  0  0  0  0  0  0  0  0  0  0
   -4.6520   -9.5324    0.0000 H   0  0  0  0  0  0  0  0  0  0  0  0
   -4.0964   -7.4755    0.0000 H   0  0  0  0  0  0  0  0  0  0  0  0
   -7.2000   -6.9282    0.0000 C   0  0  0  0  0  0  0  0  0  0  0  0
   -6.9222   -8.5038    0.0000 H   0  0  0  0  0  0  0  0  0  0  0  0
   -8.7034   -7.4755    0.0000 H   0  0  0  0  0  0  0  0  0  0  0  0
   -8.0000   -5.5426    0.0000 C   0  0  0  0  0  0  0  0  0  0  0  0
   -9.2257   -6.5709    0.0000 H   0  0  0  0  0  0  0  0  0  0  0  0
   -9.2257   -4.5141    0.0000 H   0  0  0  0  0  0  0  0  0  0  0  0
   -7.2000   -4.1568    0.0000 C   0  0  0  0  0  0  0  0  0  0  0  0
   -8.0000   -2.7713    0.0000 C   0  0  0  0  0  0  0  0  0  0  0  0
   -9.6000   -2.7713    0.0000 H   0  0  0  0  0  0  0  0  0  0  0  0
   -7.2000   -1.3857    0.0000 H   0  0  0  0  0  0  0  0  0  0  0  0
   -5.5999   -1.3857    0.0000 H   0  0  0  0  0  0  0  0  0  0  0  0
   -2.3999   -4.1568    0.0000 H   0  0  0  0  0  0  0  0  0  0  0  0
   -0.8002   -1.3857    0.0000 C   0  0  0  0  0  0  0  0  0  0  0  0
   -1.4507   -2.8473    0.0000 H   0  0  0  0  0  0  0  0  0  0  0  0
    0.2706   -2.5747    0.0000 C   0  0  0  0  0  0  0  0  0  0  0  0
   -0.8409   -3.7256    0.0000 H   0  0  0  0  0  0  0  0  0  0  0  0
    1.0706   -3.9603    0.0000 H   0  0  0  0  0  0  0  0  0  0  0  0
    1.7324   -1.9239    0.0000 C   0  0  0  0  0  0  0  0  0  0  0  0
    2.2267   -3.4456    0.0000 H   0  0  0  0  0  0  0  0  0  0  0  0
    2.6998   -2.1484    0.0000 H   0  0  0  0  0  0  0  0  0  0  0  0
    1.5649   -0.3326    0.0000 C   0  0  0  0  0  0  0  0  0  0  0  0
    3.1406   -0.6105    0.0000 C   0  0  0  0  0  0  0  0  0  0  0  0
    3.4187    0.9651    0.0000 C   0  0  0  0  0  0  0  0  0  0  0  0
    4.9222    1.5125    0.0000 H   0  0  0  0  0  0  0  0  0  0  0  0
    3.6965    2.5410    0.0000 H   0  0  0  0  0  0  0  0  0  0  0  0
    4.6444   -0.0632    0.0000 H   0  0  0  0  0  0  0  0  0  0  0  0
    4.7166   -0.8883    0.0000 C   0  0  0  0  0  0  0  0  0  0  0  0
    5.2638   -2.3919    0.0000 C   0  0  0  0  0  0  0  0  0  0  0  0
    6.8395   -2.6696    0.0000 C   0  0  0  0  0  0  0  0  0  0  0  0
    6.5617   -4.2453    0.0000 C   0  0  0  0  0  0  0  0  0  0  0  0
    6.2835   -5.8211    0.0000 H   0  0  0  0  0  0  0  0  0  0  0  0
    5.0579   -4.7926    0.0000 H   0  0  0  0  0  0  0  0  0  0  0  0
    7.5901   -5.4711    0.0000 H   0  0  0  0  0  0  0  0  0  0  0  0
    8.4151   -2.9476    0.0000 C   0  0  0  0  0  0  0  0  0  0  0  0
    9.9186   -3.4947    0.0000 C   0  0  0  0  0  0  0  0  0  0  0  0
   11.4221   -4.0419    0.0000 H   0  0  0  0  0  0  0  0  0  0  0  0
   10.1964   -5.0704    0.0000 H   0  0  0  0  0  0  0  0  0  0  0  0
   11.1443   -2.4662    0.0000 H   0  0  0  0  0  0  0  0  0  0  0  0
    8.6929   -1.3718    0.0000 C   0  0  0  0  0  0  0  0  0  0  0  0
   10.1964   -0.8246    0.0000 H   0  0  0  0  0  0  0  0  0  0  0  0
    8.9707    0.2039    0.0000 H   0  0  0  0  0  0  0  0  0  0  0  0
    9.9186   -2.4003    0.0000 H   0  0  0  0  0  0  0  0  0  0  0  0
    8.1373   -4.5233    0.0000 H   0  0  0  0  0  0  0  0  0  0  0  0
    7.1172   -1.0940    0.0000 H   0  0  0  0  0  0  0  0  0  0  0  0
    4.2351   -3.6175    0.0000 H   0  0  0  0  0  0  0  0  0  0  0  0
    5.7450    0.3373    0.0000 H   0  0  0  0  0  0  0  0  0  0  0  0
    3.2974   -1.5912    0.0000 H   0  0  0  0  0  0  0  0  0  0  0  0
    1.7324    1.2585    0.0000 H   0  0  0  0  0  0  0  0  0  0  0  0
  1  2  1  0  0  0  0
  2  3  1  0  0  0  0
  2  4  1  0  0  0  0
  2  5  1  0  0  0  0
  1  6  1  0  0  0  0
  6  7  1  0  0  0  0
  6  8  1  0  0  0  0
  6  9  1  0  0  0  0
  9 10  1  0  0  0  0
  9 11  1  0  0  0  0
  9 12  1  0  0  0  0
 12 13  1  0  0  0  0
 12 14  1  0  0  0  0
 12 15  1  0  0  0  0
 15 16  2  0  0  0  0
 16 17  1  0  0  0  0
 17 18  2  0  0  0  0
 18 19  1  0  0  0  0
 19 20  1  0  0  0  0
 19 21  1  0  0  0  0
 19 22  1  0  0  0  0
 22 23  1  0  0  0  0
 23 24  1  0  0  0  0
 22 25  1  0  0  0  0
 22 26  1  0  0  0  0
 26 27  1  0  0  0  0
 26 28  1  0  0  0  0
 26 29  1  0  0  0  0
 29 30  1  0  0  0  0
 29 31  1  0  0  0  0
 29 32  1  0  0  0  0
 32 18  1  0  0  0  0
 32 33  2  0  0  0  0
 33 34  1  0  0  0  0
 33 35  1  0  0  0  0
 17 36  1  0  0  0  0
 16 37  1  0  0  0  0
 15 38  1  0  0  0  0
 38  1  1  0  0  0  0
 38 39  1  0  0  0  0
 38 40  1  0  0  0  0
 40 41  1  0  0  0  0
 40 42  1  0  0  0  0
 40 43  1  0  0  0  0
 43 44  1  0  0  0  0
 43 45  1  0  0  0  0
 43 46  1  0  0  0  0
 46  1  1  0  0  0  0
 46 47  1  0  0  0  0
 47 48  1  0  0  0  0
 48 49  1  0  0  0  0
 48 50  1  0  0  0  0
 48 51  1  0  0  0  0
 47 52  1  0  0  0  0
 52 53  2  0  0  0  0
 53 54  1  0  0  0  0
 54 55  1  0  0  0  0
 55 56  1  0  0  0  0
 55 57  1  0  0  0  0
 55 58  1  0  0  0  0
 54 59  1  0  0  0  0
 59 60  1  0  0  0  0
 60 61  1  0  0  0  0
 60 62  1  0  0  0  0
 60 63  1  0  0  0  0
 59 64  1  0  0  0  0
 64 65  1  0  0  0  0
 64 66  1  0  0  0  0
 64 67  1  0  0  0  0
 59 68  1  0  0  0  0
 54 69  1  0  0  0  0
 53 70  1  0  0  0  0
 52 71  1  0  0  0  0
 47 72  1  0  0  0  0
 46 73  1  0  0  0  0
M  END
> <ChemID>
100010.0

> <CAS>
50-14-6

> <CAS_checksum>
ValidCAS

> <NAME>
Vitamin D2

> <name_error>
Ok

> <preferred_name>
Ergocalciferol

> <iupac>
(3S,5Z,7E,22E)-9,10-secoergosta-5,7,10,22-tetraen-3-ol

> <SMILES>
CC(C)[C@@H](C)/C=C/[C@@H](C)[C@H]1CC[C@H]2/C(/CCC[C@@]21C)=C/C=C1/C[C@@H](O)CCC/1=C

> <STAR_flag>
3 STAR Enhanced Stereochemistry

> <New STAR flag>
4 STAR: Smiles generated

> <Canonical_QSARr>
CC(C)C(C)C=CC(C)C1CCC2C(CCCC21C)=CC=C1CC(O)CCC1=C

> <InChI_Code_QSARr>
InChI=1S/C28H44O/c1-19(2)20(3)9-10-22(5)26-15-16-27-23(8-7-17-28(26,27)6)12-13-24-18-25(29)14-11-21(24)4/h9-10,12-13,19-20,22,25-27,29H,4,7-8,11,14-18H2,1-3,5-6H3/b10-9+,23-12+,24-13+

> <InChI Key_QSARr>
MECHNRXZTMCUDQ-ZJGOHBTISA-N

> <Salt_Solvent>
?

> <Salt_Solvent_ID>


> <MP>
116.5

> <EstMP>
176.95

> <ErrorMP>
60.45

> <gsid>
20233

> <dsstox_substance_id>
DTXSID5020233

> <qc_level>
DSSTox_Low

> <dsstox_compound_id>
DTXCID70233

> <Tr_1_Tst_0>
0

$$$$
100011.0
  -INDIGO-01081610012D

 29 29  0  0  0  0  0  0  0  0999 V2000
    2.4000    4.1569    0.0000 Cl  0  0  0  0  0  0  0  0  0  0  0  0
    3.2001    2.7713    0.0000 C   0  0  0  0  0  0  0  0  0  0  0  0
    2.4000    1.3856    0.0000 C   0  0  0  0  0  0  0  0  0  0  0  0
    1.6000    0.0001    0.0000 N   0  0  0  0  0  0  0  0  0  0  0  0
    0.0001    0.0001    0.0000 P   0  0  0  0  0  0  0  0  0  0  0  0
    0.0001    1.6000    0.0000 O   0  0  0  0  0  0  0  0  0  0  0  0
   -1.3856    2.4000    0.0000 C   0  0  0  0  0  0  0  0  0  0  0  0
   -0.3571    3.6256    0.0000 H   0  0  0  0  0  0  0  0  0  0  0  0
   -2.4142    3.6256    0.0000 H   0  0  0  0  0  0  0  0  0  0  0  0
   -2.7713    1.6000    0.0000 C   0  0  0  0  0  0  0  0  0  0  0  0
   -3.3185    3.1035    0.0000 H   0  0  0  0  0  0  0  0  0  0  0  0
   -4.3470    1.3222    0.0000 H   0  0  0  0  0  0  0  0  0  0  0  0
   -2.7713    0.0001    0.0000 C   0  0  0  0  0  0  0  0  0  0  0  0
   -4.3470    0.2779    0.0000 H   0  0  0  0  0  0  0  0  0  0  0  0
   -3.3185   -1.5035    0.0000 H   0  0  0  0  0  0  0  0  0  0  0  0
   -1.3856   -0.8000    0.0000 N   0  0  0  0  0  0  0  0  0  0  0  0
   -1.3856   -2.4000    0.0000 H   0  0  0  0  0  0  0  0  0  0  0  0
    0.5472   -1.5035    0.0000 O   0  0  0  0  0  0  0  0  0  0  0  0
    2.4000   -1.3856    0.0000 C   0  0  0  0  0  0  0  0  0  0  0  0
    3.2001   -2.7712    0.0000 C   0  0  0  0  0  0  0  0  0  0  0  0
    4.0000   -4.1569    0.0000 Cl  0  0  0  0  0  0  0  0  0  0  0  0
    4.8000   -2.7712    0.0000 H   0  0  0  0  0  0  0  0  0  0  0  0
    2.4000   -4.1569    0.0000 H   0  0  0  0  0  0  0  0  0  0  0  0
    3.7856   -0.5857    0.0000 H   0  0  0  0  0  0  0  0  0  0  0  0
    1.3715   -2.6114    0.0000 H   0  0  0  0  0  0  0  0  0  0  0  0
    3.7856    0.5857    0.0000 H   0  0  0  0  0  0  0  0  0  0  0  0
    1.0143    2.1856    0.0000 H   0  0  0  0  0  0  0  0  0  0  0  0
    4.0000    4.1569    0.0000 H   0  0  0  0  0  0  0  0  0  0  0  0
    4.8000    2.7713    0.0000 H   0  0  0  0  0  0  0  0  0  0  0  0
  1  2  1  0  0  0  0
  2  3  1  0  0  0  0
  3  4  1  0  0  0  0
  4  5  1  0  0  0  0
  5  6  1  0  0  0  0
  6  7  1  0  0  0  0
  7  8  1  0  0  0  0
  7  9  1  0  0  0  0
  7 10  1  0  0  0  0
 10 11  1  0  0  0  0
 10 12  1  0  0  0  0
 10 13  1  0  0  0  0
 13 14  1  0  0  0  0
 13 15  1  0  0  0  0
 13 16  1  0  0  0  0
 16  5  1  0  0  0  0
 16 17  1  0  0  0  0
  5 18  2  0  0  0  0
  4 19  1  0  0  0  0
 19 20  1  0  0  0  0
 20 21  1  0  0  0  0
 20 22  1  0  0  0  0
 20 23  1  0  0  0  0
 19 24  1  0  0  0  0
 19 25  1  0  0  0  0
  3 26  1  0  0  0  0
  3 27  1  0  0  0  0
  2 28  1  0  0  0  0
  2 29  1  0  0  0  0
M  END
> <ChemID>
100011.0

> <CAS>
50-18-0

> <CAS_checksum>
ValidCAS

> <NAME>
CYCLOPHOSPHAMIDE

> <name_error>
Warning: Structure is taken from ACD/Dictionary

> <preferred_name>
Cyclophosphamide

> <iupac>
N,N-bis(2-chloroethyl)-1,3,2-oxazaphosphinan-2-amine 2-oxide

> <SMILES>
O=P1(NCCCO1)N(CCCl)CCCl

> <STAR_flag>
3 STAR

> <New STAR flag>
4 STAR: Smiles generated

> <Canonical_QSARr>
O=P1(NCCCO1)N(CCCl)CCCl

> <InChI_Code_QSARr>
InChI=1S/C7H15Cl2N2O2P/c8-2-5-11(6-3-9)14(12)10-4-1-7-13-14/h1-7H2,(H,10,12)

> <InChI Key_QSARr>
CMSMOCZEIVJLDB-UHFFFAOYSA-N

> <Salt_Solvent>
?

> <Salt_Solvent_ID>


> <MP>
51.5

> <EstMP>
85.72

> <ErrorMP>
34.22

> <gsid>
20364

> <dsstox_substance_id>
DTXSID5020364

> <qc_level>
DSSTox_Low

> <dsstox_compound_id>
DTXCID70364

> <Tr_1_Tst_0>
1

$$$$
100012.0
  -INDIGO-01081610012D

 30 30  0  0  0  0  0  0  0  0999 V2000
    3.6327   -2.1735    0.0000 C   0  0  0  0  0  0  0  0  0  0  0  0
    4.6612   -3.3991    0.0000 N   0  0  0  0  0  0  0  0  0  0  0  0
    6.2368   -3.1213    0.0000 H   0  0  0  0  0  0  0  0  0  0  0  0
    4.1138   -4.9027    0.0000 H   0  0  0  0  0  0  0  0  0  0  0  0
    4.1798   -0.6700    0.0000 O   0  0  0  0  0  0  0  0  0  0  0  0
    2.0569   -2.4514    0.0000 O   0  0  0  0  0  0  0  0  0  0  0  0
    1.0284   -1.2257    0.0000 C   0  0  0  0  0  0  0  0  0  0  0  0
   -0.0001    0.0000    0.0000 C   0  0  0  0  0  0  0  0  0  0  0  0
    1.3856    0.8000    0.0000 C   0  0  0  0  0  0  0  0  0  0  0  0
    2.6114    1.8285    0.0000 C   0  0  0  0  0  0  0  0  0  0  0  0
    3.8370    2.8570    0.0000 H   0  0  0  0  0  0  0  0  0  0  0  0
    4.1147    1.2813    0.0000 H   0  0  0  0  0  0  0  0  0  0  0  0
    2.3335    3.4042    0.0000 H   0  0  0  0  0  0  0  0  0  0  0  0
    2.4140   -0.4257    0.0000 H   0  0  0  0  0  0  0  0  0  0  0  0
    0.3573    2.0257    0.0000 H   0  0  0  0  0  0  0  0  0  0  0  0
   -1.0285    1.2256    0.0000 O   0  0  0  0  0  0  0  0  0  0  0  0
   -0.4812    2.7292    0.0000 H   0  0  0  0  0  0  0  0  0  0  0  0
   -1.3857   -0.8000    0.0000 C   0  0  0  0  0  0  0  0  0  0  0  0
   -2.7713    0.0000    0.0000 C   0  0  0  0  0  0  0  0  0  0  0  0
   -2.7713    1.6001    0.0000 H   0  0  0  0  0  0  0  0  0  0  0  0
   -4.1569   -0.8000    0.0000 C   0  0  0  0  0  0  0  0  0  0  0  0
   -5.5426    0.0000    0.0000 H   0  0  0  0  0  0  0  0  0  0  0  0
   -4.1569   -2.4000    0.0000 C   0  0  0  0  0  0  0  0  0  0  0  0
   -5.5426   -3.2000    0.0000 H   0  0  0  0  0  0  0  0  0  0  0  0
   -2.7713   -3.2000    0.0000 C   0  0  0  0  0  0  0  0  0  0  0  0
   -2.7713   -4.8000    0.0000 H   0  0  0  0  0  0  0  0  0  0  0  0
   -1.3857   -2.4000    0.0000 C   0  0  0  0  0  0  0  0  0  0  0  0
   -0.0001   -3.2000    0.0000 H   0  0  0  0  0  0  0  0  0  0  0  0
   -0.1972   -2.2542    0.0000 H   0  0  0  0  0  0  0  0  0  0  0  0
    1.8284    0.1600    0.0000 H   0  0  0  0  0  0  0  0  0  0  0  0
  1  2  1  0  0  0  0
  2  3  1  0  0  0  0
  2  4  1  0  0  0  0
  1  5  2  0  0  0  0
  1  6  1  0  0  0  0
  6  7  1  0  0  0  0
  7  8  1  0  0  0  0
  8  9  1  0  0  0  0
  9 10  1  0  0  0  0
 10 11  1  0  0  0  0
 10 12  1  0  0  0  0
 10 13  1  0  0  0  0
  9 14  1  0  0  0  0
  9 15  1  0  0  0  0
  8 16  1  0  0  0  0
 16 17  1  0  0  0  0
  8 18  1  0  0  0  0
 18 19  4  0  0  0  0
 19 20  1  0  0  0  0
 19 21  4  0  0  0  0
 21 22  1  0  0  0  0
 21 23  4  0  0  0  0
 23 24  1  0  0  0  0
 23 25  4  0  0  0  0
 25 26  1  0  0  0  0
 25 27  4  0  0  0  0
 27 18  4  0  0  0  0
 27 28  1  0  0  0  0
  7 29  1  0  0  0  0
  7 30  1  0  0  0  0
M  END
> <ChemID>
100012.0

> <CAS>
50-19-1

> <CAS_checksum>
ValidCAS

> <NAME>
HYDROXYPHENAMATE

> <name_error>
Warning: Structure is taken from ACD/Dictionary

> <preferred_name>


> <iupac>


> <SMILES>
CCC(O)(COC(N)=O)c1ccccc1

> <STAR_flag>
2 STAR: Molfile, Name, CAS unverified

> <New STAR flag>
3 STAR: Molfile, Name, Smiles generated

> <Canonical_QSARr>
CCC(O)(COC(N)=O)c1ccccc1

> <InChI_Code_QSARr>
InChI=1S/C11H15NO3/c1-2-11(14,8-15-10(12)13)9-6-4-3-5-7-9/h3-7,14H,2,8H2,1H3,(H2,12,13)

> <InChI Key_QSARr>
WAFIYOULDIWAKR-UHFFFAOYSA-N

> <Salt_Solvent>
?

> <Salt_Solvent_ID>


> <MP>
55.0

> <EstMP>
95.0

> <ErrorMP>
40.0

> <gsid>


> <dsstox_substance_id>


> <qc_level>


> <dsstox_compound_id>


> <Tr_1_Tst_0>
1

$$$$
100013.0
  -INDIGO-01081610012D

 12 11  0  0  0  0  0  0  0  0999 V2000
   -1.6000    0.0000    0.0000 C   0  0  0  0  0  0  0  0  0  0  0  0
   -0.0000    0.0000    0.0000 C   0  0  0  0  0  0  0  0  0  0  0  0
   -0.0000    1.6000    0.0000 O   0  0  0  0  0  0  0  0  0  0  0  0
   -1.3857    2.4000    0.0000 H   0  0  0  0  0  0  0  0  0  0  0  0
    1.6000    0.0000    0.0000 C   0  0  0  0  0  0  0  0  0  0  0  0
    3.2000    0.0000    0.0000 H   0  0  0  0  0  0  0  0  0  0  0  0
    2.4000   -1.3856    0.0000 H   0  0  0  0  0  0  0  0  0  0  0  0
    2.4000    1.3856    0.0000 H   0  0  0  0  0  0  0  0  0  0  0  0
   -0.0000   -1.6000    0.0000 H   0  0  0  0  0  0  0  0  0  0  0  0
   -2.4000    1.3856    0.0000 O   0  0  0  0  0  0  0  0  0  0  0  0
   -2.4000   -1.3856    0.0000 O   0  0  0  0  0  0  0  0  0  0  0  0
   -4.0000   -1.3856    0.0000 H   0  0  0  0  0  0  0  0  0  0  0  0
  1  2  1  0  0  0  0
  2  3  1  0  0  0  0
  3  4  1  0  0  0  0
  2  5  1  0  0  0  0
  5  6  1  0  0  0  0
  5  7  1  0  0  0  0
  5  8  1  0  0  0  0
  2  9  1  0  0  0  0
  1 10  2  0  0  0  0
  1 11  1  0  0  0  0
 11 12  1  0  0  0  0
M  END
> <ChemID>
100013.0

> <CAS>
50-21-5, 79-33-4, 10326-41-7

> <CAS_checksum>
ValidCAS

> <NAME>
LACTIC ACID, L-LACTIC ACID, D-LACTIC ACID

> <name_error>
Ok

> <preferred_name>
Lactic acid

> <iupac>
2-hydroxypropanoic acid

> <SMILES>
CC(O)C(O)=O

> <STAR_flag>
3 STAR

> <New STAR flag>
4 STAR: Smiles generated

> <Canonical_QSARr>
CC(O)C(O)=O

> <InChI_Code_QSARr>
InChI=1S/C3H6O3/c1-2(4)3(5)6/h2,4H,1H3,(H,5,6)

> <InChI Key_QSARr>
JVTAAEKCZFNVCJ-UHFFFAOYSA-N

> <Salt_Solvent>
?

> <Salt_Solvent_ID>


> <MP>
40.86666666666666

> <EstMP>
22.659999999999997

> <ErrorMP>
-18.206666666666667

> <gsid>
23192

> <dsstox_substance_id>
DTXSID7023192

> <qc_level>
DSSTox_High

> <dsstox_compound_id>
DTXCID003192

> <Tr_1_Tst_0>
1

$$$$
100014.0
  -INDIGO-01081610012D

 55 58  0  0  0  0  0  0  0  0999 V2000
   -0.0000    0.0000    0.0000 C   0  0  0  0  0  0  0  0  0  0  0  0
    0.9404   -1.2944    0.0000 C   0  0  0  0  0  0  0  0  0  0  0  0
    2.0913   -2.4059    0.0000 H   0  0  0  0  0  0  0  0  0  0  0  0
    1.1078   -2.8856    0.0000 H   0  0  0  0  0  0  0  0  0  0  0  0
    1.7323   -1.2586    0.0000 H   0  0  0  0  0  0  0  0  0  0  0  0
    1.5650    0.3327    0.0000 C   0  0  0  0  0  0  0  0  0  0  0  0
    3.1651    0.3327    0.0000 C   0  0  0  0  0  0  0  0  0  0  0  0
    4.3908    1.3611    0.0000 C   0  0  0  0  0  0  0  0  0  0  0  0
    5.6164    2.3896    0.0000 O   0  0  0  0  0  0  0  0  0  0  0  0
    7.1199    1.8423    0.0000 H   0  0  0  0  0  0  0  0  0  0  0  0
    5.4192    0.1354    0.0000 H   0  0  0  0  0  0  0  0  0  0  0  0
    3.3623    2.5868    0.0000 H   0  0  0  0  0  0  0  0  0  0  0  0
    3.9650   -1.0530    0.0000 O   0  0  0  0  0  0  0  0  0  0  0  0
    2.0487   -0.2953    0.0000 H   0  0  0  0  0  0  0  0  0  0  0  0
    1.7323    1.9239    0.0000 C   0  0  0  0  0  0  0  0  0  0  0  0
    3.2973    1.5912    0.0000 H   0  0  0  0  0  0  0  0  0  0  0  0
    2.2268    3.4456    0.0000 H   0  0  0  0  0  0  0  0  0  0  0  0
    0.2707    2.5747    0.0000 C   0  0  0  0  0  0  0  0  0  0  0  0
    1.0705    3.9603    0.0000 H   0  0  0  0  0  0  0  0  0  0  0  0
   -0.3801    4.0363    0.0000 H   0  0  0  0  0  0  0  0  0  0  0  0
   -0.8001    1.3856    0.0000 C   0  0  0  0  0  0  0  0  0  0  0  0
   -0.6327    2.9769    0.0000 H   0  0  0  0  0  0  0  0  0  0  0  0
   -2.4000    1.3856    0.0000 C   0  0  0  0  0  0  0  0  0  0  0  0
   -1.5999    2.7713    0.0000 H   0  0  0  0  0  0  0  0  0  0  0  0
   -3.2001    0.0000    0.0000 C   0  0  0  0  0  0  0  0  0  0  0  0
   -4.8000    0.0000    0.0000 C   0  0  0  0  0  0  0  0  0  0  0  0
   -4.3887   -0.4902    0.0000 C   0  0  0  0  0  0  0  0  0  0  0  0
   -4.9357   -1.9937    0.0000 H   0  0  0  0  0  0  0  0  0  0  0  0
   -3.9999   -1.3857    0.0000 H   0  0  0  0  0  0  0  0  0  0  0  0
   -5.9886   -0.4902    0.0000 H   0  0  0  0  0  0  0  0  0  0  0  0
   -5.6001   -1.3857    0.0000 C   0  0  0  0  0  0  0  0  0  0  0  0
   -5.8779   -2.9613    0.0000 H   0  0  0  0  0  0  0  0  0  0  0  0
   -4.8000   -2.7712    0.0000 H   0  0  0  0  0  0  0  0  0  0  0  0
   -7.2000   -1.3857    0.0000 C   0  0  0  0  0  0  0  0  0  0  0  0
   -8.7035   -1.9329    0.0000 H   0  0  0  0  0  0  0  0  0  0  0  0
   -6.9222   -2.9613    0.0000 H   0  0  0  0  0  0  0  0  0  0  0  0
   -8.0001    0.0000    0.0000 C   0  0  0  0  0  0  0  0  0  0  0  0
   -9.6000    0.0000    0.0000 O   0  0  0  0  0  0  0  0  0  0  0  0
   -7.2000    1.3856    0.0000 C   0  0  0  0  0  0  0  0  0  0  0  0
   -8.0001    2.7713    0.0000 H   0  0  0  0  0  0  0  0  0  0  0  0
   -5.6001    1.3856    0.0000 C   0  0  0  0  0  0  0  0  0  0  0  0
   -4.8000    2.7713    0.0000 C   0  0  0  0  0  0  0  0  0  0  0  0
   -3.2001    2.7713    0.0000 C   0  0  0  0  0  0  0  0  0  0  0  0
   -1.9744    3.7997    0.0000 H   0  0  0  0  0  0  0  0  0  0  0  0
   -3.4779    4.3470    0.0000 H   0  0  0  0  0  0  0  0  0  0  0  0
   -4.5222    4.3470    0.0000 H   0  0  0  0  0  0  0  0  0  0  0  0
   -6.3035    3.3185    0.0000 H   0  0  0  0  0  0  0  0  0  0  0  0
   -3.1761   -0.9758    0.0000 H   0  0  0  0  0  0  0  0  0  0  0  0
   -2.4000   -1.3857    0.0000 C   0  0  0  0  0  0  0  0  0  0  0  0
   -2.1222   -2.9613    0.0000 O   0  0  0  0  0  0  0  0  0  0  0  0
   -3.3478   -3.9898    0.0000 H   0  0  0  0  0  0  0  0  0  0  0  0
   -3.2001   -2.7712    0.0000 H   0  0  0  0  0  0  0  0  0  0  0  0
   -0.8001   -1.3857    0.0000 C   0  0  0  0  0  0  0  0  0  0  0  0
   -1.0779   -2.9613    0.0000 H   0  0  0  0  0  0  0  0  0  0  0  0
    0.4256   -2.4142    0.0000 H   0  0  0  0  0  0  0  0  0  0  0  0
  1  2  1  0  0  0  0
  2  3  1  0  0  0  0
  2  4  1  0  0  0  0
  2  5  1  0  0  0  0
  1  6  1  0  0  0  0
  6  7  1  0  0  0  0
  7  8  1  0  0  0  0
  8  9  1  0  0  0  0
  9 10  1  0  0  0  0
  8 11  1  0  0  0  0
  8 12  1  0  0  0  0
  7 13  2  0  0  0  0
  6 14  1  0  0  0  0
  6 15  1  0  0  0  0
 15 16  1  0  0  0  0
 15 17  1  0  0  0  0
 15 18  1  0  0  0  0
 18 19  1  0  0  0  0
 18 20  1  0  0  0  0
 18 21  1  0  0  0  0
 21  1  1  0  0  0  0
 21 22  1  0  0  0  0
 21 23  1  0  0  0  0
 23 24  1  0  0  0  0
 23 25  1  0  0  0  0
 25 26  1  0  0  0  0
 26 27  1  0  0  0  0
 27 28  1  0  0  0  0
 27 29  1  0  0  0  0
 27 30  1  0  0  0  0
 26 31  1  0  0  0  0
 31 32  1  0  0  0  0
 31 33  1  0  0  0  0
 31 34  1  0  0  0  0
 34 35  1  0  0  0  0
 34 36  1  0  0  0  0
 34 37  1  0  0  0  0
 37 38  2  0  0  0  0
 37 39  1  0  0  0  0
 39 40  1  0  0  0  0
 39 41  2  0  0  0  0
 41 26  1  0  0  0  0
 41 42  1  0  0  0  0
 42 43  1  0  0  0  0
 43 23  1  0  0  0  0
 43 44  1  0  0  0  0
 43 45  1  0  0  0  0
 42 46  1  0  0  0  0
 42 47  1  0  0  0  0
 25 48  1  0  0  0  0
 25 49  1  0  0  0  0
 49 50  1  0  0  0  0
 50 51  1  0  0  0  0
 49 52  1  0  0  0  0
 49 53  1  0  0  0  0
 53  1  1  0  0  0  0
 53 54  1  0  0  0  0
 53 55  1  0  0  0  0
M  END
> <ChemID>
100014.0

> <CAS>
50-22-6

> <CAS_checksum>
ValidCAS

> <NAME>
CORTICOSTERONE

> <name_error>
Ok

> <preferred_name>
Corticosterone

> <iupac>
(11beta)-11,21-dihydroxypregn-4-ene-3,20-dione

> <SMILES>
C[C@]12CCC(=O)C=C1CC[C@@H]1[C@@H]2[C@@H](O)C[C@]2(C)[C@H](CC[C@H]21)C(=O)CO

> <STAR_flag>
3 STAR Enhanced Stereochemistry

> <New STAR flag>
4 STAR: Smiles generated

> <Canonical_QSARr>
CC12CCC(=O)C=C1CCC1C2C(O)CC2(C)C(CCC21)C(=O)CO

> <InChI_Code_QSARr>
InChI=1S/C21H30O4/c1-20-8-7-13(23)9-12(20)3-4-14-15-5-6-16(18(25)11-22)21(15,2)10-17(24)19(14)20/h9,14-17,19,22,24H,3-8,10-11H2,1-2H3

> <InChI Key_QSARr>
OMFXVFTZEKFJBZ-UHFFFAOYSA-N

> <Salt_Solvent>
?

> <Salt_Solvent_ID>


> <MP>
181.0

> <EstMP>
201.38

> <ErrorMP>
20.38

> <gsid>
22474

> <dsstox_substance_id>
DTXSID6022474

> <qc_level>
DSSTox_Low

> <dsstox_compound_id>
DTXCID702474

> <Tr_1_Tst_0>
0

$$$$
100015.0
  -INDIGO-01081610012D

 56 59  0  0  0  0  0  0  0  0999 V2000
    0.0001   -0.0000    0.0000 C   0  0  0  0  0  0  0  0  0  0  0  0
    0.9403    1.2944    0.0000 C   0  0  0  0  0  0  0  0  0  0  0  0
    2.0915    2.4059    0.0000 H   0  0  0  0  0  0  0  0  0  0  0  0
    1.1077    2.8856    0.0000 H   0  0  0  0  0  0  0  0  0  0  0  0
    2.4784    0.8534    0.0000 H   0  0  0  0  0  0  0  0  0  0  0  0
   -0.8001    1.3857    0.0000 C   0  0  0  0  0  0  0  0  0  0  0  0
    0.2285    2.6113    0.0000 H   0  0  0  0  0  0  0  0  0  0  0  0
   -1.0778    2.9613    0.0000 H   0  0  0  0  0  0  0  0  0  0  0  0
   -2.3999    1.3857    0.0000 C   0  0  0  0  0  0  0  0  0  0  0  0
   -2.1221    2.9613    0.0000 O   0  0  0  0  0  0  0  0  0  0  0  0
   -3.3477    3.9898    0.0000 H   0  0  0  0  0  0  0  0  0  0  0  0
   -3.4285    2.6113    0.0000 H   0  0  0  0  0  0  0  0  0  0  0  0
   -3.2001   -0.0000    0.0000 C   0  0  0  0  0  0  0  0  0  0  0  0
   -3.1763    0.9758    0.0000 H   0  0  0  0  0  0  0  0  0  0  0  0
   -2.3999   -1.3856    0.0000 C   0  0  0  0  0  0  0  0  0  0  0  0
   -3.2001   -2.7713    0.0000 C   0  0  0  0  0  0  0  0  0  0  0  0
   -4.7999   -2.7713    0.0000 C   0  0  0  0  0  0  0  0  0  0  0  0
   -5.6001   -1.3856    0.0000 C   0  0  0  0  0  0  0  0  0  0  0  0
   -7.2000   -1.3856    0.0000 C   0  0  0  0  0  0  0  0  0  0  0  0
   -7.9999   -2.7713    0.0000 H   0  0  0  0  0  0  0  0  0  0  0  0
   -7.9999   -0.0000    0.0000 C   0  0  0  0  0  0  0  0  0  0  0  0
   -9.6000   -0.0000    0.0000 O   0  0  0  0  0  0  0  0  0  0  0  0
   -7.2000    1.3857    0.0000 C   0  0  0  0  0  0  0  0  0  0  0  0
   -6.9222    2.9613    0.0000 H   0  0  0  0  0  0  0  0  0  0  0  0
   -8.7036    1.9329    0.0000 H   0  0  0  0  0  0  0  0  0  0  0  0
   -5.6001    1.3857    0.0000 C   0  0  0  0  0  0  0  0  0  0  0  0
   -5.0527    2.8892    0.0000 H   0  0  0  0  0  0  0  0  0  0  0  0
   -5.8779    2.9613    0.0000 H   0  0  0  0  0  0  0  0  0  0  0  0
   -4.7999   -0.0000    0.0000 C   0  0  0  0  0  0  0  0  0  0  0  0
   -4.3887    0.4902    0.0000 C   0  0  0  0  0  0  0  0  0  0  0  0
   -4.9359    1.9937    0.0000 H   0  0  0  0  0  0  0  0  0  0  0  0
   -4.0000    1.3857    0.0000 H   0  0  0  0  0  0  0  0  0  0  0  0
   -3.8415   -1.0133    0.0000 H   0  0  0  0  0  0  0  0  0  0  0  0
   -6.3036   -3.3185    0.0000 H   0  0  0  0  0  0  0  0  0  0  0  0
   -4.5222   -4.3470    0.0000 H   0  0  0  0  0  0  0  0  0  0  0  0
   -3.4779   -4.3470    0.0000 H   0  0  0  0  0  0  0  0  0  0  0  0
   -1.9742   -3.7997    0.0000 H   0  0  0  0  0  0  0  0  0  0  0  0
   -1.6000   -2.7713    0.0000 H   0  0  0  0  0  0  0  0  0  0  0  0
   -0.8001   -1.3856    0.0000 C   0  0  0  0  0  0  0  0  0  0  0  0
   -0.6327   -2.9769    0.0000 H   0  0  0  0  0  0  0  0  0  0  0  0
    0.2706   -2.5747    0.0000 C   0  0  0  0  0  0  0  0  0  0  0  0
   -0.3802   -4.0363    0.0000 H   0  0  0  0  0  0  0  0  0  0  0  0
    1.0705   -3.9603    0.0000 H   0  0  0  0  0  0  0  0  0  0  0  0
    1.7322   -1.9239    0.0000 C   0  0  0  0  0  0  0  0  0  0  0  0
    2.2267   -3.4456    0.0000 H   0  0  0  0  0  0  0  0  0  0  0  0
    3.2973   -1.5912    0.0000 H   0  0  0  0  0  0  0  0  0  0  0  0
    1.5650   -0.3327    0.0000 C   0  0  0  0  0  0  0  0  0  0  0  0
    1.7322    1.2586    0.0000 O   0  0  0  0  0  0  0  0  0  0  0  0
    3.1940    1.9094    0.0000 H   0  0  0  0  0  0  0  0  0  0  0  0
    3.1651   -0.3327    0.0000 C   0  0  0  0  0  0  0  0  0  0  0  0
    4.3907   -1.3611    0.0000 C   0  0  0  0  0  0  0  0  0  0  0  0
    5.4191   -0.1354    0.0000 O   0  0  0  0  0  0  0  0  0  0  0  0
    6.9949   -0.4132    0.0000 H   0  0  0  0  0  0  0  0  0  0  0  0
    5.6163   -2.3896    0.0000 H   0  0  0  0  0  0  0  0  0  0  0  0
    3.3621   -2.5868    0.0000 H   0  0  0  0  0  0  0  0  0  0  0  0
    3.9651    1.0530    0.0000 O   0  0  0  0  0  0  0  0  0  0  0  0
  1  2  1  0  0  0  0
  2  3  1  0  0  0  0
  2  4  1  0  0  0  0
  2  5  1  0  0  0  0
  1  6  1  0  0  0  0
  6  7  1  0  0  0  0
  6  8  1  0  0  0  0
  6  9  1  0  0  0  0
  9 10  1  0  0  0  0
 10 11  1  0  0  0  0
  9 12  1  0  0  0  0
  9 13  1  0  0  0  0
 13 14  1  0  0  0  0
 13 15  1  0  0  0  0
 15 16  1  0  0  0  0
 16 17  1  0  0  0  0
 17 18  1  0  0  0  0
 18 19  2  0  0  0  0
 19 20  1  0  0  0  0
 19 21  1  0  0  0  0
 21 22  2  0  0  0  0
 21 23  1  0  0  0  0
 23 24  1  0  0  0  0
 23 25  1  0  0  0  0
 23 26  1  0  0  0  0
 26 27  1  0  0  0  0
 26 28  1  0  0  0  0
 26 29  1  0  0  0  0
 29 18  1  0  0  0  0
 29 13  1  0  0  0  0
 29 30  1  0  0  0  0
 30 31  1  0  0  0  0
 30 32  1  0  0  0  0
 30 33  1  0  0  0  0
 17 34  1  0  0  0  0
 17 35  1  0  0  0  0
 16 36  1  0  0  0  0
 16 37  1  0  0  0  0
 15 38  1  0  0  0  0
 15 39  1  0  0  0  0
 39  1  1  0  0  0  0
 39 40  1  0  0  0  0
 39 41  1  0  0  0  0
 41 42  1  0  0  0  0
 41 43  1  0  0  0  0
 41 44  1  0  0  0  0
 44 45  1  0  0  0  0
 44 46  1  0  0  0  0
 44 47  1  0  0  0  0
 47  1  1  0  0  0  0
 47 48  1  0  0  0  0
 48 49  1  0  0  0  0
 47 50  1  0  0  0  0
 50 51  1  0  0  0  0
 51 52  1  0  0  0  0
 52 53  1  0  0  0  0
 51 54  1  0  0  0  0
 51 55  1  0  0  0  0
 50 56  2  0  0  0  0
M  END
> <ChemID>
100015.0

> <CAS>
50-23-7

> <CAS_checksum>
ValidCAS

> <NAME>
HYDROCORTISONE

> <name_error>
Warning: Structure is taken from ACD/Dictionary

> <preferred_name>
Hydrocortisone

> <iupac>
(11beta)-11,17,21-trihydroxypregn-4-ene-3,20-dione

> <SMILES>
C[C@]12CCC(=O)C=C1CC[C@@H]1[C@@H]2[C@@H](O)C[C@@]2(C)[C@H]1CC[C@]2(O)C(=O)CO

> <STAR_flag>
3 STAR Enhanced Stereochemistry

> <New STAR flag>
4 STAR: Smiles generated

> <Canonical_QSARr>
CC12CCC(=O)C=C1CCC1C2C(O)CC2(C)C1CCC2(O)C(=O)CO

> <InChI_Code_QSARr>
InChI=1S/C21H30O5/c1-19-7-5-13(23)9-12(19)3-4-14-15-6-8-21(26,17(25)11-22)20(15,2)10-16(24)18(14)19/h9,14-16,18,22,24,26H,3-8,10-11H2,1-2H3

> <InChI Key_QSARr>
JYGXADMDTFJGBT-UHFFFAOYSA-N

> <Salt_Solvent>
?

> <Salt_Solvent_ID>


> <MP>
218.5

> <EstMP>
214.53

> <ErrorMP>
-3.97

> <gsid>
20714

> <dsstox_substance_id>
DTXSID7020714

> <qc_level>
DSSTox_Low

> <dsstox_compound_id>
DTXCID10714

> <Tr_1_Tst_0>
1

$$$$
100016.0
  -INDIGO-01081610012D

 45 48  0  0  0  0  0  0  0  0999 V2000
    0.0001    0.0000    0.0000 C   0  0  0  0  0  0  0  0  0  0  0  0
    0.9404   -1.2945    0.0000 C   0  0  0  0  0  0  0  0  0  0  0  0
    2.0915   -2.4059    0.0000 H   0  0  0  0  0  0  0  0  0  0  0  0
    1.1076   -2.8856    0.0000 H   0  0  0  0  0  0  0  0  0  0  0  0
    1.7323   -1.2586    0.0000 H   0  0  0  0  0  0  0  0  0  0  0  0
    1.5651    0.3327    0.0000 C   0  0  0  0  0  0  0  0  0  0  0  0
    3.1650    0.3327    0.0000 O   0  0  0  0  0  0  0  0  0  0  0  0
    3.9650   -1.0529    0.0000 H   0  0  0  0  0  0  0  0  0  0  0  0
    2.0487   -0.2953    0.0000 H   0  0  0  0  0  0  0  0  0  0  0  0
    1.7323    1.9239    0.0000 C   0  0  0  0  0  0  0  0  0  0  0  0
    3.2973    1.5913    0.0000 O   0  0  0  0  0  0  0  0  0  0  0  0
    4.3679    2.7803    0.0000 H   0  0  0  0  0  0  0  0  0  0  0  0
    2.2267    3.4456    0.0000 H   0  0  0  0  0  0  0  0  0  0  0  0
    0.2707    2.5746    0.0000 C   0  0  0  0  0  0  0  0  0  0  0  0
    1.0707    3.9603    0.0000 H   0  0  0  0  0  0  0  0  0  0  0  0
   -0.3801    4.0364    0.0000 H   0  0  0  0  0  0  0  0  0  0  0  0
   -0.7999    1.3856    0.0000 C   0  0  0  0  0  0  0  0  0  0  0  0
   -0.6327    2.9769    0.0000 H   0  0  0  0  0  0  0  0  0  0  0  0
   -2.4001    1.3856    0.0000 C   0  0  0  0  0  0  0  0  0  0  0  0
   -1.6001    2.7712    0.0000 H   0  0  0  0  0  0  0  0  0  0  0  0
   -3.2000    0.0000    0.0000 C   0  0  0  0  0  0  0  0  0  0  0  0
   -4.8000    0.0000    0.0000 C   0  0  0  0  0  0  0  0  0  0  0  0
   -5.5999   -1.3856    0.0000 C   0  0  0  0  0  0  0  0  0  0  0  0
   -4.8000   -2.7713    0.0000 H   0  0  0  0  0  0  0  0  0  0  0  0
   -7.1999   -1.3856    0.0000 C   0  0  0  0  0  0  0  0  0  0  0  0
   -8.0001   -2.7713    0.0000 H   0  0  0  0  0  0  0  0  0  0  0  0
   -8.0001    0.0000    0.0000 C   0  0  0  0  0  0  0  0  0  0  0  0
   -9.6000    0.0000    0.0000 O   0  0  0  0  0  0  0  0  0  0  0  0
  -10.4000   -1.3856    0.0000 H   0  0  0  0  0  0  0  0  0  0  0  0
   -7.1999    1.3856    0.0000 C   0  0  0  0  0  0  0  0  0  0  0  0
   -8.0001    2.7712    0.0000 H   0  0  0  0  0  0  0  0  0  0  0  0
   -5.5999    1.3856    0.0000 C   0  0  0  0  0  0  0  0  0  0  0  0
   -4.8000    2.7712    0.0000 C   0  0  0  0  0  0  0  0  0  0  0  0
   -3.2000    2.7712    0.0000 C   0  0  0  0  0  0  0  0  0  0  0  0
   -1.9744    3.7998    0.0000 H   0  0  0  0  0  0  0  0  0  0  0  0
   -3.4779    4.3470    0.0000 H   0  0  0  0  0  0  0  0  0  0  0  0
   -4.5221    4.3470    0.0000 H   0  0  0  0  0  0  0  0  0  0  0  0
   -6.3035    3.3186    0.0000 H   0  0  0  0  0  0  0  0  0  0  0  0
   -4.0000   -1.3856    0.0000 H   0  0  0  0  0  0  0  0  0  0  0  0
   -2.4001   -1.3856    0.0000 C   0  0  0  0  0  0  0  0  0  0  0  0
   -3.6257   -2.4141    0.0000 H   0  0  0  0  0  0  0  0  0  0  0  0
   -2.1222   -2.9613    0.0000 H   0  0  0  0  0  0  0  0  0  0  0  0
   -0.7999   -1.3856    0.0000 C   0  0  0  0  0  0  0  0  0  0  0  0
   -1.0777   -2.9613    0.0000 H   0  0  0  0  0  0  0  0  0  0  0  0
    0.5857   -2.1856    0.0000 H   0  0  0  0  0  0  0  0  0  0  0  0
  1  2  1  0  0  0  0
  2  3  1  0  0  0  0
  2  4  1  0  0  0  0
  2  5  1  0  0  0  0
  1  6  1  0  0  0  0
  6  7  1  0  0  0  0
  7  8  1  0  0  0  0
  6  9  1  0  0  0  0
  6 10  1  0  0  0  0
 10 11  1  0  0  0  0
 11 12  1  0  0  0  0
 10 13  1  0  0  0  0
 10 14  1  0  0  0  0
 14 15  1  0  0  0  0
 14 16  1  0  0  0  0
 14 17  1  0  0  0  0
 17  1  1  0  0  0  0
 17 18  1  0  0  0  0
 17 19  1  0  0  0  0
 19 20  1  0  0  0  0
 19 21  1  0  0  0  0
 21 22  1  0  0  0  0
 22 23  4  0  0  0  0
 23 24  1  0  0  0  0
 23 25  4  0  0  0  0
 25 26  1  0  0  0  0
 25 27  4  0  0  0  0
 27 28  1  0  0  0  0
 28 29  1  0  0  0  0
 27 30  4  0  0  0  0
 30 31  1  0  0  0  0
 30 32  4  0  0  0  0
 32 22  4  0  0  0  0
 32 33  1  0  0  0  0
 33 34  1  0  0  0  0
 34 19  1  0  0  0  0
 34 35  1  0  0  0  0
 34 36  1  0  0  0  0
 33 37  1  0  0  0  0
 33 38  1  0  0  0  0
 21 39  1  0  0  0  0
 21 40  1  0  0  0  0
 40 41  1  0  0  0  0
 40 42  1  0  0  0  0
 40 43  1  0  0  0  0
 43  1  1  0  0  0  0
 43 44  1  0  0  0  0
 43 45  1  0  0  0  0
M  END
> <ChemID>
100016.0

> <CAS>
50-27-1

> <CAS_checksum>
ValidCAS

> <NAME>
ESTRIOL

> <name_error>
Ok

> <preferred_name>
Estriol

> <iupac>
(16alpha,17beta)-estra-1,3,5(10)-triene-3,16,17-triol

> <SMILES>
C[C@]12CC[C@H]3[C@@H](CCc4cc(O)ccc43)[C@@H]1C[C@@H](O)[C@@H]2O

> <STAR_flag>
3 STAR Enhanced Stereochemistry

> <New STAR flag>
4 STAR: Smiles generated

> <Canonical_QSARr>
CC12CCC3C(CCc4cc(O)ccc43)C1CC(O)C2O

> <InChI_Code_QSARr>
InChI=1S/C18H24O3/c1-18-7-6-13-12-5-3-11(19)8-10(12)2-4-14(13)15(18)9-16(20)17(18)21/h3,5,8,13-17,19-21H,2,4,6-7,9H2,1H3

> <InChI Key_QSARr>
PROQIPRRNZUXQM-UHFFFAOYSA-N

> <Salt_Solvent>
?

> <Salt_Solvent_ID>


> <MP>
282.0

> <EstMP>
180.72

> <ErrorMP>
-101.28

> <gsid>
22366

> <dsstox_substance_id>
DTXSID9022366

> <qc_level>
DSSTox_Low

> <dsstox_compound_id>
DTXCID002366

> <Tr_1_Tst_0>
1

$$$$
100017.0
  -INDIGO-01081610012D

 44 47  0  0  0  0  0  0  0  0999 V2000
   -0.0000    0.0000    0.0000 C   0  0  0  0  0  0  0  0  0  0  0  0
    0.9406   -1.2945    0.0000 C   0  0  0  0  0  0  0  0  0  0  0  0
    2.0913   -2.4059    0.0000 H   0  0  0  0  0  0  0  0  0  0  0  0
    1.1076   -2.8856    0.0000 H   0  0  0  0  0  0  0  0  0  0  0  0
    1.7323   -1.2586    0.0000 H   0  0  0  0  0  0  0  0  0  0  0  0
    1.5651    0.3327    0.0000 C   0  0  0  0  0  0  0  0  0  0  0  0
    3.1650    0.3327    0.0000 O   0  0  0  0  0  0  0  0  0  0  0  0
    3.9650   -1.0529    0.0000 H   0  0  0  0  0  0  0  0  0  0  0  0
    2.0486   -0.2953    0.0000 H   0  0  0  0  0  0  0  0  0  0  0  0
    1.7323    1.9239    0.0000 C   0  0  0  0  0  0  0  0  0  0  0  0
    3.2974    1.5913    0.0000 H   0  0  0  0  0  0  0  0  0  0  0  0
    2.2268    3.4456    0.0000 H   0  0  0  0  0  0  0  0  0  0  0  0
    0.2707    2.5746    0.0000 C   0  0  0  0  0  0  0  0  0  0  0  0
    1.0705    3.9603    0.0000 H   0  0  0  0  0  0  0  0  0  0  0  0
   -0.3801    4.0364    0.0000 H   0  0  0  0  0  0  0  0  0  0  0  0
   -0.8001    1.3856    0.0000 C   0  0  0  0  0  0  0  0  0  0  0  0
   -0.6328    2.9769    0.0000 H   0  0  0  0  0  0  0  0  0  0  0  0
   -2.4000    1.3856    0.0000 C   0  0  0  0  0  0  0  0  0  0  0  0
   -1.5999    2.7712    0.0000 H   0  0  0  0  0  0  0  0  0  0  0  0
   -3.2001    0.0000    0.0000 C   0  0  0  0  0  0  0  0  0  0  0  0
   -4.8000    0.0000    0.0000 C   0  0  0  0  0  0  0  0  0  0  0  0
   -5.6000   -1.3856    0.0000 C   0  0  0  0  0  0  0  0  0  0  0  0
   -4.8000   -2.7713    0.0000 H   0  0  0  0  0  0  0  0  0  0  0  0
   -7.2000   -1.3856    0.0000 C   0  0  0  0  0  0  0  0  0  0  0  0
   -8.0000   -2.7713    0.0000 H   0  0  0  0  0  0  0  0  0  0  0  0
   -8.0000    0.0000    0.0000 C   0  0  0  0  0  0  0  0  0  0  0  0
   -9.5999    0.0000    0.0000 O   0  0  0  0  0  0  0  0  0  0  0  0
  -10.4000   -1.3856    0.0000 H   0  0  0  0  0  0  0  0  0  0  0  0
   -7.2000    1.3856    0.0000 C   0  0  0  0  0  0  0  0  0  0  0  0
   -8.0000    2.7712    0.0000 H   0  0  0  0  0  0  0  0  0  0  0  0
   -5.6000    1.3856    0.0000 C   0  0  0  0  0  0  0  0  0  0  0  0
   -4.8000    2.7712    0.0000 C   0  0  0  0  0  0  0  0  0  0  0  0
   -3.2001    2.7712    0.0000 C   0  0  0  0  0  0  0  0  0  0  0  0
   -1.9743    3.7998    0.0000 H   0  0  0  0  0  0  0  0  0  0  0  0
   -3.4778    4.3470    0.0000 H   0  0  0  0  0  0  0  0  0  0  0  0
   -4.5222    4.3470    0.0000 H   0  0  0  0  0  0  0  0  0  0  0  0
   -6.3034    3.3186    0.0000 H   0  0  0  0  0  0  0  0  0  0  0  0
   -3.9999   -1.3856    0.0000 H   0  0  0  0  0  0  0  0  0  0  0  0
   -2.4000   -1.3856    0.0000 C   0  0  0  0  0  0  0  0  0  0  0  0
   -3.6257   -2.4141    0.0000 H   0  0  0  0  0  0  0  0  0  0  0  0
   -2.1223   -2.9613    0.0000 H   0  0  0  0  0  0  0  0  0  0  0  0
   -0.8001   -1.3856    0.0000 C   0  0  0  0  0  0  0  0  0  0  0  0
   -1.0778   -2.9613    0.0000 H   0  0  0  0  0  0  0  0  0  0  0  0
    0.5857   -2.1856    0.0000 H   0  0  0  0  0  0  0  0  0  0  0  0
  1  2  1  0  0  0  0
  2  3  1  0  0  0  0
  2  4  1  0  0  0  0
  2  5  1  0  0  0  0
  1  6  1  0  0  0  0
  6  7  1  0  0  0  0
  7  8  1  0  0  0  0
  6  9  1  0  0  0  0
  6 10  1  0  0  0  0
 10 11  1  0  0  0  0
 10 12  1  0  0  0  0
 10 13  1  0  0  0  0
 13 14  1  0  0  0  0
 13 15  1  0  0  0  0
 13 16  1  0  0  0  0
 16  1  1  0  0  0  0
 16 17  1  0  0  0  0
 16 18  1  0  0  0  0
 18 19  1  0  0  0  0
 18 20  1  0  0  0  0
 20 21  1  0  0  0  0
 21 22  4  0  0  0  0
 22 23  1  0  0  0  0
 22 24  4  0  0  0  0
 24 25  1  0  0  0  0
 24 26  4  0  0  0  0
 26 27  1  0  0  0  0
 27 28  1  0  0  0  0
 26 29  4  0  0  0  0
 29 30  1  0  0  0  0
 29 31  4  0  0  0  0
 31 21  4  0  0  0  0
 31 32  1  0  0  0  0
 32 33  1  0  0  0  0
 33 18  1  0  0  0  0
 33 34  1  0  0  0  0
 33 35  1  0  0  0  0
 32 36  1  0  0  0  0
 32 37  1  0  0  0  0
 20 38  1  0  0  0  0
 20 39  1  0  0  0  0
 39 40  1  0  0  0  0
 39 41  1  0  0  0  0
 39 42  1  0  0  0  0
 42  1  1  0  0  0  0
 42 43  1  0  0  0  0
 42 44  1  0  0  0  0
M  END
> <ChemID>
100017.0

> <CAS>
50-28-2, 57-91-0

> <CAS_checksum>
ValidCAS

> <NAME>
ESTRADIOL, a-Estradiol

> <name_error>
Warning: Structure is taken from ACD/Dictionary

> <preferred_name>
17beta-Estradiol

> <iupac>
(17beta)-estra-1(10),2,4-triene-3,17-diol

> <SMILES>
C[C@]12CC[C@H]3[C@@H](CCc4cc(O)ccc43)[C@@H]1CC[C@@H]2O

> <STAR_flag>
3 STAR Enhanced Stereochemistry

> <New STAR flag>
4 STAR: Smiles generated

> <Canonical_QSARr>
CC12CCC3C(CCc4cc(O)ccc43)C1CCC2O

> <InChI_Code_QSARr>
InChI=1S/C18H24O2/c1-18-9-8-14-13-5-3-12(19)10-11(13)2-4-15(14)16(18)6-7-17(18)20/h3,5,10,14-17,19-20H,2,4,6-9H2,1H3

> <InChI Key_QSARr>
VOXZDWNPVJITMN-UHFFFAOYSA-N

> <Salt_Solvent>
?

> <Salt_Solvent_ID>


> <MP>
200.0

> <EstMP>
152.43

> <ErrorMP>
-47.56999999999999

> <gsid>
20573

> <dsstox_substance_id>
DTXSID0020573

> <qc_level>
DSSTox_High

> <dsstox_compound_id>
DTXCID80573

> <Tr_1_Tst_0>
1

$$$$
100018.0
  -INDIGO-01081610012D

 28 29  0  0  0  0  0  0  0  0999 V2000
    1.3856   -0.8000    0.0000 Cl  0  0  0  0  0  0  0  0  0  0  0  0
   -0.0001   -1.6001    0.0000 C   0  0  0  0  0  0  0  0  0  0  0  0
   -0.0001   -3.2000    0.0000 Cl  0  0  0  0  0  0  0  0  0  0  0  0
    1.3856   -2.4000    0.0000 Cl  0  0  0  0  0  0  0  0  0  0  0  0
   -0.0001    0.0000    0.0000 C   0  0  0  0  0  0  0  0  0  0  0  0
    1.5034    0.5472    0.0000 C   0  0  0  0  0  0  0  0  0  0  0  0
    2.7292   -0.4813    0.0000 C   0  0  0  0  0  0  0  0  0  0  0  0
    2.7292   -2.0812    0.0000 H   0  0  0  0  0  0  0  0  0  0  0  0
    4.2327    0.0660    0.0000 C   0  0  0  0  0  0  0  0  0  0  0  0
    5.4584   -0.9624    0.0000 H   0  0  0  0  0  0  0  0  0  0  0  0
    4.5106    1.6416    0.0000 C   0  0  0  0  0  0  0  0  0  0  0  0
    6.0140    2.1889    0.0000 Cl  0  0  0  0  0  0  0  0  0  0  0  0
    3.2848    2.6701    0.0000 C   0  0  0  0  0  0  0  0  0  0  0  0
    3.5627    4.2459    0.0000 H   0  0  0  0  0  0  0  0  0  0  0  0
    1.7813    2.1229    0.0000 C   0  0  0  0  0  0  0  0  0  0  0  0
    0.5557    3.1514    0.0000 H   0  0  0  0  0  0  0  0  0  0  0  0
   -1.5999    0.0000    0.0000 C   0  0  0  0  0  0  0  0  0  0  0  0
   -2.4001    1.3857    0.0000 C   0  0  0  0  0  0  0  0  0  0  0  0
   -1.5999    2.7713    0.0000 H   0  0  0  0  0  0  0  0  0  0  0  0
   -4.0000    1.3857    0.0000 C   0  0  0  0  0  0  0  0  0  0  0  0
   -4.7999    2.7713    0.0000 H   0  0  0  0  0  0  0  0  0  0  0  0
   -4.7999    0.0000    0.0000 C   0  0  0  0  0  0  0  0  0  0  0  0
   -6.4000    0.0000    0.0000 Cl  0  0  0  0  0  0  0  0  0  0  0  0
   -4.0000   -1.3857    0.0000 C   0  0  0  0  0  0  0  0  0  0  0  0
   -4.7999   -2.7713    0.0000 H   0  0  0  0  0  0  0  0  0  0  0  0
   -2.4001   -1.3857    0.0000 C   0  0  0  0  0  0  0  0  0  0  0  0
   -1.5999   -2.7713    0.0000 H   0  0  0  0  0  0  0  0  0  0  0  0
   -0.0001    1.6000    0.0000 H   0  0  0  0  0  0  0  0  0  0  0  0
  1  2  1  0  0  0  0
  2  3  1  0  0  0  0
  2  4  1  0  0  0  0
  2  5  1  0  0  0  0
  5  6  1  0  0  0  0
  6  7  4  0  0  0  0
  7  8  1  0  0  0  0
  7  9  4  0  0  0  0
  9 10  1  0  0  0  0
  9 11  4  0  0  0  0
 11 12  1  0  0  0  0
 11 13  4  0  0  0  0
 13 14  1  0  0  0  0
 13 15  4  0  0  0  0
 15  6  4  0  0  0  0
 15 16  1  0  0  0  0
  5 17  1  0  0  0  0
 17 18  4  0  0  0  0
 18 19  1  0  0  0  0
 18 20  4  0  0  0  0
 20 21  1  0  0  0  0
 20 22  4  0  0  0  0
 22 23  1  0  0  0  0
 22 24  4  0  0  0  0
 24 25  1  0  0  0  0
 24 26  4  0  0  0  0
 26 17  4  0  0  0  0
 26 27  1  0  0  0  0
  5 28  1  0  0  0  0
M  END
> <ChemID>
100018.0

> <CAS>
50-29-3

> <CAS_checksum>
ValidCAS

> <NAME>
P,P'-DDT

> <name_error>
Warning: Structure is taken from ACD/Dictionary

> <preferred_name>
p,p'-DDT

> <iupac>
1,1'-(2,2,2-trichloroethane-1,1-diyl)bis(4-chlorobenzene)

> <SMILES>
ClC(Cl)(Cl)C(c1ccc(Cl)cc1)c1ccc(Cl)cc1

> <STAR_flag>
3 STAR

> <New STAR flag>
4 STAR: Smiles generated

> <Canonical_QSARr>
ClC(Cl)(Cl)C(c1ccc(Cl)cc1)c1ccc(Cl)cc1

> <InChI_Code_QSARr>
InChI=1S/C14H9Cl5/c15-11-5-1-9(2-6-11)13(14(17,18)19)10-3-7-12(16)8-4-10/h1-8,13H

> <InChI Key_QSARr>
YVGGHNCTFXOJCH-UHFFFAOYSA-N

> <Salt_Solvent>
?

> <Salt_Solvent_ID>


> <MP>
108.5

> <EstMP>
123.21

> <ErrorMP>
14.71

> <gsid>
20375

> <dsstox_substance_id>
DTXSID4020375

> <qc_level>
DSSTox_High

> <dsstox_compound_id>
DTXCID20375

> <Tr_1_Tst_0>
0

$$$$
100019.0
  -INDIGO-01081610012D

 15 15  0  0  0  0  0  0  0  0999 V2000
    1.6000    0.0000    0.0000 C   0  0  0  0  0  0  0  0  0  0  0  0
   -0.0000   -0.0000    0.0000 C   0  0  0  0  0  0  0  0  0  0  0  0
   -0.8000    1.3856    0.0000 C   0  0  0  0  0  0  0  0  0  0  0  0
   -0.0000    2.7713    0.0000 Cl  0  0  0  0  0  0  0  0  0  0  0  0
   -2.4000    1.3856    0.0000 C   0  0  0  0  0  0  0  0  0  0  0  0
   -3.2001    2.7713    0.0000 H   0  0  0  0  0  0  0  0  0  0  0  0
   -3.2001   -0.0000    0.0000 C   0  0  0  0  0  0  0  0  0  0  0  0
   -4.8000   -0.0000    0.0000 H   0  0  0  0  0  0  0  0  0  0  0  0
   -2.4000   -1.3856    0.0000 C   0  0  0  0  0  0  0  0  0  0  0  0
   -3.2001   -2.7713    0.0000 H   0  0  0  0  0  0  0  0  0  0  0  0
   -0.8000   -1.3856    0.0000 C   0  0  0  0  0  0  0  0  0  0  0  0
   -0.0000   -2.7713    0.0000 Cl  0  0  0  0  0  0  0  0  0  0  0  0
    2.4001   -1.3856    0.0000 O   0  0  0  0  0  0  0  0  0  0  0  0
    4.0000   -1.3856    0.0000 H   0  0  0  0  0  0  0  0  0  0  0  0
    2.4001    1.3856    0.0000 O   0  0  0  0  0  0  0  0  0  0  0  0
  1  2  1  0  0  0  0
  2  3  4  0  0  0  0
  3  4  1  0  0  0  0
  3  5  4  0  0  0  0
  5  6  1  0  0  0  0
  5  7  4  0  0  0  0
  7  8  1  0  0  0  0
  7  9  4  0  0  0  0
  9 10  1  0  0  0  0
  9 11  4  0  0  0  0
 11  2  4  0  0  0  0
 11 12  1  0  0  0  0
  1 13  1  0  0  0  0
 13 14  1  0  0  0  0
  1 15  2  0  0  0  0
M  END
> <ChemID>
100019.0

> <CAS>
50-30-6

> <CAS_checksum>
ValidCAS

> <NAME>
2,6-DICHLOROBENZOIC ACID

> <name_error>
Ok

> <preferred_name>
2,6-Dichlorobenzoic acid

> <iupac>
2,6-dichlorobenzoic acid

> <SMILES>
OC(=O)c1c(Cl)cccc1Cl

> <STAR_flag>
3 STAR

> <New STAR flag>
4 STAR: Smiles generated

> <Canonical_QSARr>
OC(=O)c1c(Cl)cccc1Cl

> <InChI_Code_QSARr>
InChI=1S/C7H4Cl2O2/c8-4-2-1-3-5(9)6(4)7(10)11/h1-3H,(H,10,11)

> <InChI Key_QSARr>
MRUDNSFOFOQZDA-UHFFFAOYSA-N

> <Salt_Solvent>
?

> <Salt_Solvent_ID>


> <MP>
144.0

> <EstMP>
88.53

> <ErrorMP>
-55.47

> <gsid>
24979

> <dsstox_substance_id>
DTXSID0024979

> <qc_level>
DSSTox_Low

> <dsstox_compound_id>
DTXCID904979

> <Tr_1_Tst_0>
1

$$$$
100020.0
  -INDIGO-01081610012D

 15 15  0  0  0  0  0  0  0  0999 V2000
    1.6000    0.0000    0.0000 C   0  0  0  0  0  0  0  0  0  0  0  0
    2.4001   -1.3856    0.0000 O   0  0  0  0  0  0  0  0  0  0  0  0
    4.0000   -1.3856    0.0000 H   0  0  0  0  0  0  0  0  0  0  0  0
   -0.0000   -0.0000    0.0000 C   0  0  0  0  0  0  0  0  0  0  0  0
   -0.8000    1.3856    0.0000 C   0  0  0  0  0  0  0  0  0  0  0  0
   -0.0000    2.7713    0.0000 Cl  0  0  0  0  0  0  0  0  0  0  0  0
   -2.4000    1.3856    0.0000 C   0  0  0  0  0  0  0  0  0  0  0  0
   -3.2001    2.7713    0.0000 H   0  0  0  0  0  0  0  0  0  0  0  0
   -3.2001   -0.0000    0.0000 C   0  0  0  0  0  0  0  0  0  0  0  0
   -4.8000   -0.0000    0.0000 H   0  0  0  0  0  0  0  0  0  0  0  0
   -2.4000   -1.3856    0.0000 C   0  0  0  0  0  0  0  0  0  0  0  0
   -3.2001   -2.7713    0.0000 Cl  0  0  0  0  0  0  0  0  0  0  0  0
   -0.8000   -1.3856    0.0000 C   0  0  0  0  0  0  0  0  0  0  0  0
   -0.0000   -2.7713    0.0000 Cl  0  0  0  0  0  0  0  0  0  0  0  0
    2.4001    1.3856    0.0000 O   0  0  0  0  0  0  0  0  0  0  0  0
  1  2  1  0  0  0  0
  2  3  1  0  0  0  0
  1  4  1  0  0  0  0
  4  5  4  0  0  0  0
  5  6  1  0  0  0  0
  5  7  4  0  0  0  0
  7  8  1  0  0  0  0
  7  9  4  0  0  0  0
  9 10  1  0  0  0  0
  9 11  4  0  0  0  0
 11 12  1  0  0  0  0
 11 13  4  0  0  0  0
 13  4  4  0  0  0  0
 13 14  1  0  0  0  0
  1 15  2  0  0  0  0
M  END
> <ChemID>
100020.0

> <CAS>
50-31-7

> <CAS_checksum>
ValidCAS

> <NAME>
2,3,6-TRICHLOROBENZOIC ACID

> <name_error>
Ok

> <preferred_name>
2,3,6-Trichlorobenzoic acid

> <iupac>
2,3,6-trichlorobenzoic acid

> <SMILES>
OC(=O)c1c(Cl)c(Cl)ccc1Cl

> <STAR_flag>
3 STAR

> <New STAR flag>
4 STAR: Smiles generated

> <Canonical_QSARr>
OC(=O)c1c(Cl)c(Cl)ccc1Cl

> <InChI_Code_QSARr>
InChI=1S/C7H3Cl3O2/c8-3-1-2-4(9)6(10)5(3)7(11)12/h1-2H,(H,11,12)

> <InChI Key_QSARr>
XZIDTOHMJBOSOX-UHFFFAOYSA-N

> <Salt_Solvent>
?

> <Salt_Solvent_ID>


> <MP>
124.5

> <EstMP>
108.94

> <ErrorMP>
-15.56

> <gsid>
40296

> <dsstox_substance_id>
DTXSID6040296

> <qc_level>
DSSTox_Low

> <dsstox_compound_id>
DTXCID4020296

> <Tr_1_Tst_0>
1

$$$$
100021.0
  -INDIGO-01081610012D

 32 36  0  0  0  0  0  0  0  0999 V2000
    0.0000   -2.7712    0.0000 C   0  0  0  0  0  0  0  0  0  0  0  0
   -0.8000   -1.3856    0.0000 C   0  0  0  0  0  0  0  0  0  0  0  0
   -2.4000   -1.3856    0.0000 C   0  0  0  0  0  0  0  0  0  0  0  0
   -3.2000   -2.7712    0.0000 C   0  0  0  0  0  0  0  0  0  0  0  0
   -2.4000   -4.1569    0.0000 H   0  0  0  0  0  0  0  0  0  0  0  0
   -4.8000   -2.7712    0.0000 C   0  0  0  0  0  0  0  0  0  0  0  0
   -5.6000   -4.1569    0.0000 H   0  0  0  0  0  0  0  0  0  0  0  0
   -5.6000   -1.3856    0.0000 C   0  0  0  0  0  0  0  0  0  0  0  0
   -7.2000   -1.3856    0.0000 H   0  0  0  0  0  0  0  0  0  0  0  0
   -4.8000   -0.0001    0.0000 C   0  0  0  0  0  0  0  0  0  0  0  0
   -5.6000    1.3856    0.0000 H   0  0  0  0  0  0  0  0  0  0  0  0
   -3.2000   -0.0001    0.0000 C   0  0  0  0  0  0  0  0  0  0  0  0
   -2.4000    1.3856    0.0000 C   0  0  0  0  0  0  0  0  0  0  0  0
   -3.2000    2.7712    0.0000 H   0  0  0  0  0  0  0  0  0  0  0  0
   -0.8000    1.3856    0.0000 C   0  0  0  0  0  0  0  0  0  0  0  0
    0.0000   -0.0001    0.0000 C   0  0  0  0  0  0  0  0  0  0  0  0
    1.6000   -0.0001    0.0000 C   0  0  0  0  0  0  0  0  0  0  0  0
    2.4000    1.3856    0.0000 C   0  0  0  0  0  0  0  0  0  0  0  0
    1.6000    2.7712    0.0000 C   0  0  0  0  0  0  0  0  0  0  0  0
    0.0000    2.7712    0.0000 C   0  0  0  0  0  0  0  0  0  0  0  0
   -0.8000    4.1569    0.0000 H   0  0  0  0  0  0  0  0  0  0  0  0
    2.4000    4.1569    0.0000 H   0  0  0  0  0  0  0  0  0  0  0  0
    4.0000    1.3856    0.0000 C   0  0  0  0  0  0  0  0  0  0  0  0
    4.8000   -0.0001    0.0000 C   0  0  0  0  0  0  0  0  0  0  0  0
    4.0000   -1.3856    0.0000 C   0  0  0  0  0  0  0  0  0  0  0  0
    4.8000   -2.7713    0.0000 H   0  0  0  0  0  0  0  0  0  0  0  0
    2.4000   -1.3856    0.0000 C   0  0  0  0  0  0  0  0  0  0  0  0
    1.6000   -2.7712    0.0000 C   0  0  0  0  0  0  0  0  0  0  0  0
    2.4000   -4.1569    0.0000 H   0  0  0  0  0  0  0  0  0  0  0  0
    6.4000   -0.0001    0.0000 H   0  0  0  0  0  0  0  0  0  0  0  0
    4.8000    2.7712    0.0000 H   0  0  0  0  0  0  0  0  0  0  0  0
   -0.8000   -4.1569    0.0000 H   0  0  0  0  0  0  0  0  0  0  0  0
  1  2  4  0  0  0  0
  2  3  4  0  0  0  0
  3  4  4  0  0  0  0
  4  5  1  0  0  0  0
  4  6  4  0  0  0  0
  6  7  1  0  0  0  0
  6  8  4  0  0  0  0
  8  9  1  0  0  0  0
  8 10  4  0  0  0  0
 10 11  1  0  0  0  0
 10 12  4  0  0  0  0
 12  3  4  0  0  0  0
 12 13  4  0  0  0  0
 13 14  1  0  0  0  0
 13 15  4  0  0  0  0
 15 16  4  0  0  0  0
 16  2  4  0  0  0  0
 16 17  4  0  0  0  0
 17 18  4  0  0  0  0
 18 19  4  0  0  0  0
 19 20  4  0  0  0  0
 20 15  4  0  0  0  0
 20 21  1  0  0  0  0
 19 22  1  0  0  0  0
 18 23  4  0  0  0  0
 23 24  4  0  0  0  0
 24 25  4  0  0  0  0
 25 26  1  0  0  0  0
 25 27  4  0  0  0  0
 27 17  4  0  0  0  0
 27 28  4  0  0  0  0
 28  1  4  0  0  0  0
 28 29  1  0  0  0  0
 24 30  1  0  0  0  0
 23 31  1  0  0  0  0
  1 32  1  0  0  0  0
M  END
> <ChemID>
100021.0

> <CAS>
50-32-8

> <CAS_checksum>
ValidCAS

> <NAME>
BENZO(A)PYRENE

> <name_error>
Ok

> <preferred_name>
Benzo(a)pyrene

> <iupac>
benzo[pqr]tetraphene

> <SMILES>
c1c2ccccc2c2ccc3cccc4ccc1c2c34

> <STAR_flag>
3 STAR

> <New STAR flag>
4 STAR: Smiles generated

> <Canonical_QSARr>
c1c2ccccc2c2ccc3cccc4ccc1c2c34

> <InChI_Code_QSARr>
InChI=1S/C20H12/c1-2-7-17-15(4-1)12-16-9-8-13-5-3-6-14-10-11-18(17)20(16)19(13)14/h1-12H

> <InChI Key_QSARr>
FMMWHPNWAFZXNH-UHFFFAOYSA-N

> <Salt_Solvent>
?

> <Salt_Solvent_ID>


> <MP>
176.5

> <EstMP>
169.41

> <ErrorMP>
-7.09

> <gsid>
20139

> <dsstox_substance_id>
DTXSID2020139

> <qc_level>
DSSTox_Low

> <dsstox_compound_id>
DTXCID40139

> <Tr_1_Tst_0>
1

$$$$
100022.0
  -INDIGO-01081610012D

 43 45  0  0  0  0  0  0  0  0999 V2000
   -0.4460    2.8161    0.0000 O   0  0  0  0  0  0  0  0  0  0  0  0
    0.4945    1.5218    0.0000 C   0  0  0  0  0  0  0  0  0  0  0  0
   -0.0001   -0.0000    0.0000 C   0  0  0  0  0  0  0  0  0  0  0  0
   -1.5525    0.3871    0.0000 C   0  0  0  0  0  0  0  0  0  0  0  0
   -3.1050    0.7742    0.0000 C   0  0  0  0  0  0  0  0  0  0  0  0
   -4.6574    1.1612    0.0000 C   0  0  0  0  0  0  0  0  0  0  0  0
   -6.2099    1.5483    0.0000 C   0  0  0  0  0  0  0  0  0  0  0  0
   -7.7624    1.9354    0.0000 H   0  0  0  0  0  0  0  0  0  0  0  0
   -7.3214    0.3973    0.0000 H   0  0  0  0  0  0  0  0  0  0  0  0
   -6.6509    3.0863    0.0000 H   0  0  0  0  0  0  0  0  0  0  0  0
   -5.0444   -0.3912    0.0000 H   0  0  0  0  0  0  0  0  0  0  0  0
   -4.2703    2.7137    0.0000 H   0  0  0  0  0  0  0  0  0  0  0  0
   -3.4919   -0.7783    0.0000 H   0  0  0  0  0  0  0  0  0  0  0  0
   -2.7178    2.3266    0.0000 H   0  0  0  0  0  0  0  0  0  0  0  0
   -1.9395   -1.1654    0.0000 H   0  0  0  0  0  0  0  0  0  0  0  0
   -1.1653    1.9396    0.0000 H   0  0  0  0  0  0  0  0  0  0  0  0
   -0.8000   -1.3856    0.0000 H   0  0  0  0  0  0  0  0  0  0  0  0
    1.2944   -0.9404    0.0000 C   0  0  0  0  0  0  0  0  0  0  0  0
    1.2944   -2.5404    0.0000 O   0  0  0  0  0  0  0  0  0  0  0  0
    2.5889   -0.0000    0.0000 N   0  0  0  0  0  0  0  0  0  0  0  0
    4.1104   -0.4945    0.0000 C   0  0  0  0  0  0  0  0  0  0  0  0
    5.5941    0.1049    0.0000 C   0  0  0  0  0  0  0  0  0  0  0  0
    6.3451    1.5176    0.0000 H   0  0  0  0  0  0  0  0  0  0  0  0
    6.8549   -0.8802    0.0000 C   0  0  0  0  0  0  0  0  0  0  0  0
    8.3384   -0.2807    0.0000 H   0  0  0  0  0  0  0  0  0  0  0  0
    6.6321   -2.4645    0.0000 C   0  0  0  0  0  0  0  0  0  0  0  0
    7.8929   -3.4497    0.0000 H   0  0  0  0  0  0  0  0  0  0  0  0
    5.1487   -3.0640    0.0000 C   0  0  0  0  0  0  0  0  0  0  0  0
    4.9261   -4.6483    0.0000 H   0  0  0  0  0  0  0  0  0  0  0  0
    3.8878   -2.0789    0.0000 C   0  0  0  0  0  0  0  0  0  0  0  0
    2.4044   -2.6783    0.0000 H   0  0  0  0  0  0  0  0  0  0  0  0
    2.0944    1.5218    0.0000 N   0  0  0  0  0  0  0  0  0  0  0  0
    2.7958    2.9597    0.0000 C   0  0  0  0  0  0  0  0  0  0  0  0
    4.3920    3.0714    0.0000 C   0  0  0  0  0  0  0  0  0  0  0  0
    5.2867    1.7450    0.0000 H   0  0  0  0  0  0  0  0  0  0  0  0
    5.0934    4.5095    0.0000 C   0  0  0  0  0  0  0  0  0  0  0  0
    6.6893    4.6210    0.0000 H   0  0  0  0  0  0  0  0  0  0  0  0
    4.1986    5.8359    0.0000 C   0  0  0  0  0  0  0  0  0  0  0  0
    4.9000    7.2740    0.0000 H   0  0  0  0  0  0  0  0  0  0  0  0
    2.6024    5.7244    0.0000 C   0  0  0  0  0  0  0  0  0  0  0  0
    1.7079    7.0508    0.0000 H   0  0  0  0  0  0  0  0  0  0  0  0
    1.9010    4.2863    0.0000 C   0  0  0  0  0  0  0  0  0  0  0  0
    0.3051    4.1746    0.0000 H   0  0  0  0  0  0  0  0  0  0  0  0
  1  2  2  0  0  0  0
  2  3  1  0  0  0  0
  3  4  1  0  0  0  0
  4  5  1  0  0  0  0
  5  6  1  0  0  0  0
  6  7  1  0  0  0  0
  7  8  1  0  0  0  0
  7  9  1  0  0  0  0
  7 10  1  0  0  0  0
  6 11  1  0  0  0  0
  6 12  1  0  0  0  0
  5 13  1  0  0  0  0
  5 14  1  0  0  0  0
  4 15  1  0  0  0  0
  4 16  1  0  0  0  0
  3 17  1  0  0  0  0
  3 18  1  0  0  0  0
 18 19  2  0  0  0  0
 18 20  1  0  0  0  0
 20 21  1  0  0  0  0
 21 22  4  0  0  0  0
 22 23  1  0  0  0  0
 22 24  4  0  0  0  0
 24 25  1  0  0  0  0
 24 26  4  0  0  0  0
 26 27  1  0  0  0  0
 26 28  4  0  0  0  0
 28 29  1  0  0  0  0
 28 30  4  0  0  0  0
 30 21  4  0  0  0  0
 30 31  1  0  0  0  0
 20 32  1  0  0  0  0
 32  2  1  0  0  0  0
 32 33  1  0  0  0  0
 33 34  4  0  0  0  0
 34 35  1  0  0  0  0
 34 36  4  0  0  0  0
 36 37  1  0  0  0  0
 36 38  4  0  0  0  0
 38 39  1  0  0  0  0
 38 40  4  0  0  0  0
 40 41  1  0  0  0  0
 40 42  4  0  0  0  0
 42 33  4  0  0  0  0
 42 43  1  0  0  0  0
M  END
> <ChemID>
100022.0

> <CAS>
50-33-9

> <CAS_checksum>
ValidCAS

> <NAME>
PHENYLBUTAZONE

> <name_error>
Warning: Structure is taken from ACD/Dictionary

> <preferred_name>
Phenylbutazone

> <iupac>
4-butyl-1,2-diphenylpyrazolidine-3,5-dione

> <SMILES>
CCCCC1C(=O)N(c2ccccc2)N(c2ccccc2)C1=O

> <STAR_flag>
3 STAR

> <New STAR flag>
4 STAR: Smiles generated

> <Canonical_QSARr>
CCCCC1C(=O)N(c2ccccc2)N(c2ccccc2)C1=O

> <InChI_Code_QSARr>
InChI=1S/C19H20N2O2/c1-2-3-14-17-18(22)20(15-10-6-4-7-11-15)21(19(17)23)16-12-8-5-9-13-16/h4-13,17H,2-3,14H2,1H3

> <InChI Key_QSARr>
VYMDGNCVAMGZFE-UHFFFAOYSA-N

> <Salt_Solvent>
?

> <Salt_Solvent_ID>


> <MP>
105.0

> <EstMP>
212.16

> <ErrorMP>
107.16

> <gsid>
21136

> <dsstox_substance_id>
DTXSID9021136

> <qc_level>
DSSTox_Low

> <dsstox_compound_id>
DTXCID601136

> <Tr_1_Tst_0>
0

$$$$
100023.0
  -INDIGO-01081610012D

 57 59  0  0  0  0  0  0  0  0999 V2000
   -8.0590    4.3120    0.0000 C   0  0  0  0  0  0  0  0  0  0  0  0
   -7.2590    2.9263    0.0000 C   0  0  0  0  0  0  0  0  0  0  0  0
   -5.6591    2.9263    0.0000 H   0  0  0  0  0  0  0  0  0  0  0  0
   -8.0590    1.5406    0.0000 C   0  0  0  0  0  0  0  0  0  0  0  0
   -7.2590    0.1552    0.0000 C   0  0  0  0  0  0  0  0  0  0  0  0
   -8.0590   -1.2305    0.0000 C   0  0  0  0  0  0  0  0  0  0  0  0
   -7.2590   -2.6162    0.0000 C   0  0  0  0  0  0  0  0  0  0  0  0
   -5.6833   -2.8941    0.0000 H   0  0  0  0  0  0  0  0  0  0  0  0
   -8.0590   -4.0018    0.0000 C   0  0  0  0  0  0  0  0  0  0  0  0
   -7.2590   -5.3875    0.0000 H   0  0  0  0  0  0  0  0  0  0  0  0
   -9.6591   -4.0018    0.0000 C   0  0  0  0  0  0  0  0  0  0  0  0
  -10.4589   -5.3875    0.0000 H   0  0  0  0  0  0  0  0  0  0  0  0
  -10.4589   -2.6162    0.0000 C   0  0  0  0  0  0  0  0  0  0  0  0
  -12.0590   -2.6162    0.0000 H   0  0  0  0  0  0  0  0  0  0  0  0
   -9.6591   -1.2305    0.0000 C   0  0  0  0  0  0  0  0  0  0  0  0
  -10.4589    0.1550    0.0000 O   0  0  0  0  0  0  0  0  0  0  0  0
   -9.6591    1.5406    0.0000 C   0  0  0  0  0  0  0  0  0  0  0  0
  -10.4589    2.9263    0.0000 C   0  0  0  0  0  0  0  0  0  0  0  0
  -12.0590    2.9263    0.0000 H   0  0  0  0  0  0  0  0  0  0  0  0
   -9.6591    4.3120    0.0000 C   0  0  0  0  0  0  0  0  0  0  0  0
  -10.4589    5.6976    0.0000 H   0  0  0  0  0  0  0  0  0  0  0  0
   -5.6833   -0.1228    0.0000 C   0  0  0  0  0  0  0  0  0  0  0  0
   -4.6548    1.1029    0.0000 O   0  0  0  0  0  0  0  0  0  0  0  0
   -3.0791    0.8252    0.0000 C   0  0  0  0  0  0  0  0  0  0  0  0
   -1.5035    0.5472    0.0000 C   0  0  0  0  0  0  0  0  0  0  0  0
   -0.0001    0.0000    0.0000 N   0  0  0  0  0  0  0  0  0  0  0  0
    1.5034   -0.5471    0.0000 C   0  0  0  0  0  0  0  0  0  0  0  0
    3.0793   -0.8251    0.0000 C   0  0  0  0  0  0  0  0  0  0  0  0
    4.6549   -1.1030    0.0000 H   0  0  0  0  0  0  0  0  0  0  0  0
    3.6263   -2.3286    0.0000 H   0  0  0  0  0  0  0  0  0  0  0  0
    4.1076    0.4006    0.0000 H   0  0  0  0  0  0  0  0  0  0  0  0
    1.2256   -2.1229    0.0000 C   0  0  0  0  0  0  0  0  0  0  0  0
    0.9479   -3.6985    0.0000 H   0  0  0  0  0  0  0  0  0  0  0  0
    2.4514   -3.1514    0.0000 H   0  0  0  0  0  0  0  0  0  0  0  0
    2.7291   -1.5757    0.0000 H   0  0  0  0  0  0  0  0  0  0  0  0
    2.0507    0.9562    0.0000 H   0  0  0  0  0  0  0  0  0  0  0  0
   -0.0001    1.6000    0.0000 C   0  0  0  0  0  0  0  0  0  0  0  0
   -0.2778    3.1756    0.0000 C   0  0  0  0  0  0  0  0  0  0  0  0
   -0.5558    4.7514    0.0000 H   0  0  0  0  0  0  0  0  0  0  0  0
   -1.7813    3.7230    0.0000 H   0  0  0  0  0  0  0  0  0  0  0  0
    0.9479    4.2042    0.0000 H   0  0  0  0  0  0  0  0  0  0  0  0
    1.5758    1.8778    0.0000 C   0  0  0  0  0  0  0  0  0  0  0  0
    2.1229    3.3813    0.0000 H   0  0  0  0  0  0  0  0  0  0  0  0
    0.5472    3.1036    0.0000 H   0  0  0  0  0  0  0  0  0  0  0  0
    3.1514    2.1557    0.0000 H   0  0  0  0  0  0  0  0  0  0  0  0
   -0.7160    1.9053    0.0000 H   0  0  0  0  0  0  0  0  0  0  0  0
   -0.5471   -1.5035    0.0000 C   0  0  0  0  0  0  0  0  0  0  0  0
   -1.0944   -3.0071    0.0000 H   0  0  0  0  0  0  0  0  0  0  0  0
    0.4812   -2.7292    0.0000 H   0  0  0  0  0  0  0  0  0  0  0  0
   -2.0508   -2.0507    0.0000 H   0  0  0  0  0  0  0  0  0  0  0  0
   -1.5757    1.3221    0.0000 H   0  0  0  0  0  0  0  0  0  0  0  0
   -1.7813   -1.0285    0.0000 H   0  0  0  0  0  0  0  0  0  0  0  0
   -2.8014    2.4008    0.0000 H   0  0  0  0  0  0  0  0  0  0  0  0
   -3.3571   -0.7506    0.0000 H   0  0  0  0  0  0  0  0  0  0  0  0
   -5.1360   -1.6263    0.0000 O   0  0  0  0  0  0  0  0  0  0  0  0
   -6.0333    1.1836    0.0000 H   0  0  0  0  0  0  0  0  0  0  0  0
   -7.2590    5.6976    0.0000 H   0  0  0  0  0  0  0  0  0  0  0  0
  1  2  4  0  0  0  0
  2  3  1  0  0  0  0
  2  4  4  0  0  0  0
  4  5  1  0  0  0  0
  5  6  1  0  0  0  0
  6  7  4  0  0  0  0
  7  8  1  0  0  0  0
  7  9  4  0  0  0  0
  9 10  1  0  0  0  0
  9 11  4  0  0  0  0
 11 12  1  0  0  0  0
 11 13  4  0  0  0  0
 13 14  1  0  0  0  0
 13 15  4  0  0  0  0
 15  6  4  0  0  0  0
 15 16  1  0  0  0  0
 16 17  1  0  0  0  0
 17  4  4  0  0  0  0
 17 18  4  0  0  0  0
 18 19  1  0  0  0  0
 18 20  4  0  0  0  0
 20  1  4  0  0  0  0
 20 21  1  0  0  0  0
  5 22  1  0  0  0  0
 22 23  1  0  0  0  0
 23 24  1  0  0  0  0
 24 25  1  0  0  0  0
 25 26  1  0  0  0  0
 26 27  1  0  0  0  0
 27 28  1  0  0  0  0
 28 29  1  0  0  0  0
 28 30  1  0  0  0  0
 28 31  1  0  0  0  0
 27 32  1  0  0  0  0
 32 33  1  0  0  0  0
 32 34  1  0  0  0  0
 32 35  1  0  0  0  0
 27 36  1  0  0  0  0
 26 37  1  0  0  0  0
 37 38  1  0  0  0  0
 38 39  1  0  0  0  0
 38 40  1  0  0  0  0
 38 41  1  0  0  0  0
 37 42  1  0  0  0  0
 42 43  1  0  0  0  0
 42 44  1  0  0  0  0
 42 45  1  0  0  0  0
 37 46  1  0  0  0  0
 26 47  1  0  0  0  0
 47 48  1  0  0  0  0
 47 49  1  0  0  0  0
 47 50  1  0  0  0  0
 25 51  1  0  0  0  0
 25 52  1  0  0  0  0
 24 53  1  0  0  0  0
 24 54  1  0  0  0  0
 22 55  2  0  0  0  0
  5 56  1  0  0  0  0
  1 57  1  0  0  0  0
M  CHG  1  26   1
M  END
> <ChemID>
100023.0

> <CAS>
50-34-0

> <CAS_checksum>
ValidCAS

> <NAME>
Propantheline bromide

> <name_error>
Warning: Structure is taken from ACD/Dictionary

> <preferred_name>
Propantheline bromide

> <iupac>
N-methyl-N-(propan-2-yl)-N-{2-[(9H-xanthen-9-ylcarbonyl)oxy]ethyl}propan-2-aminium bromide

> <SMILES>
[Br-].C[N+](CCOC(=O)C1c2ccccc2Oc2ccccc21)(C(C)C)C(C)C

> <STAR_flag>
3 STAR Enhanced Stereochemistry

> <New STAR flag>
4 STAR: Smiles generated

> <Canonical_QSARr>
C[N+](CCOC(=O)C1c2ccccc2Oc2ccccc21)(C(C)C)C(C)C

> <InChI_Code_QSARr>
InChI=1S/C23H30NO3/c1-16(2)24(5,17(3)4)14-15-26-23(25)22-18-10-6-8-12-20(18)27-21-13-9-7-11-19(21)22/h6-13,16-17,22H,14-15H2,1-5H3/q+1

> <InChI Key_QSARr>
VVWYOYDLCMFIEM-UHFFFAOYSA-N

> <Salt_Solvent>
[Br-]

> <Salt_Solvent_ID>
1731

> <MP>
159.5

> <EstMP>
270.24

> <ErrorMP>
110.74

> <gsid>
23519

> <dsstox_substance_id>
DTXSID2023519

> <qc_level>
DSSTox_Low

> <dsstox_compound_id>
DTXCID203519

> <Tr_1_Tst_0>
1

$$$$
100024.0
  -INDIGO-01081610012D

 29 31  0  0  0  0  0  0  0  0999 V2000
   -1.5756   -0.2779    0.0000 N   0  0  0  0  0  0  0  0  0  0  0  0
   -0.0001   -0.0000    0.0000 C   0  0  0  0  0  0  0  0  0  0  0  0
    1.2256    1.0284    0.0000 C   0  0  0  0  0  0  0  0  0  0  0  0
   -0.0001    2.0570    0.0000 H   0  0  0  0  0  0  0  0  0  0  0  0
    2.0257    2.4141    0.0000 H   0  0  0  0  0  0  0  0  0  0  0  0
    2.7292    0.4813    0.0000 C   0  0  0  0  0  0  0  0  0  0  0  0
    3.0071    2.0570    0.0000 H   0  0  0  0  0  0  0  0  0  0  0  0
    4.3293    0.4813    0.0000 H   0  0  0  0  0  0  0  0  0  0  0  0
    3.0071   -1.0945    0.0000 C   0  0  0  0  0  0  0  0  0  0  0  0
    4.5105   -1.6417    0.0000 O   0  0  0  0  0  0  0  0  0  0  0  0
    1.7814   -2.1229    0.0000 N   0  0  0  0  0  0  0  0  0  0  0  0
    2.0592   -3.6986    0.0000 H   0  0  0  0  0  0  0  0  0  0  0  0
    0.2778   -1.5756    0.0000 C   0  0  0  0  0  0  0  0  0  0  0  0
   -0.9479   -2.6042    0.0000 O   0  0  0  0  0  0  0  0  0  0  0  0
   -0.8000    1.3856    0.0000 H   0  0  0  0  0  0  0  0  0  0  0  0
   -2.5161   -1.5723    0.0000 C   0  0  0  0  0  0  0  0  0  0  0  0
   -2.2935   -3.1567    0.0000 O   0  0  0  0  0  0  0  0  0  0  0  0
   -4.0378   -1.0779    0.0000 C   0  0  0  0  0  0  0  0  0  0  0  0
   -5.4234   -1.8778    0.0000 C   0  0  0  0  0  0  0  0  0  0  0  0
   -6.8092   -1.0779    0.0000 C   0  0  0  0  0  0  0  0  0  0  0  0
   -6.8092    0.5222    0.0000 C   0  0  0  0  0  0  0  0  0  0  0  0
   -5.4234    1.3222    0.0000 C   0  0  0  0  0  0  0  0  0  0  0  0
   -5.4234    2.9222    0.0000 H   0  0  0  0  0  0  0  0  0  0  0  0
   -4.0378    0.5222    0.0000 C   0  0  0  0  0  0  0  0  0  0  0  0
   -2.5161    1.0166    0.0000 C   0  0  0  0  0  0  0  0  0  0  0  0
   -2.0217    2.5383    0.0000 O   0  0  0  0  0  0  0  0  0  0  0  0
   -8.1948    1.3222    0.0000 H   0  0  0  0  0  0  0  0  0  0  0  0
   -8.1948   -1.8778    0.0000 H   0  0  0  0  0  0  0  0  0  0  0  0
   -5.4234   -3.4779    0.0000 H   0  0  0  0  0  0  0  0  0  0  0  0
  1  2  1  0  0  0  0
  2  3  1  0  0  0  0
  3  4  1  0  0  0  0
  3  5  1  0  0  0  0
  3  6  1  0  0  0  0
  6  7  1  0  0  0  0
  6  8  1  0  0  0  0
  6  9  1  0  0  0  0
  9 10  2  0  0  0  0
  9 11  1  0  0  0  0
 11 12  1  0  0  0  0
 11 13  1  0  0  0  0
 13  2  1  0  0  0  0
 13 14  2  0  0  0  0
  2 15  1  0  0  0  0
  1 16  1  0  0  0  0
 16 17  2  0  0  0  0
 16 18  1  0  0  0  0
 18 19  4  0  0  0  0
 19 20  4  0  0  0  0
 20 21  4  0  0  0  0
 21 22  4  0  0  0  0
 22 23  1  0  0  0  0
 22 24  4  0  0  0  0
 24 18  4  0  0  0  0
 24 25  1  0  0  0  0
 25  1  1  0  0  0  0
 25 26  2  0  0  0  0
 21 27  1  0  0  0  0
 20 28  1  0  0  0  0
 19 29  1  0  0  0  0
M  END
> <ChemID>
100024.0

> <CAS>
50-35-1

> <CAS_checksum>
ValidCAS

> <NAME>
THALIDOMIDE

> <name_error>
Warning: Structure is taken from ACD/Dictionary

> <preferred_name>
Thalidomide

> <iupac>
2-(2,6-dioxopiperidin-3-yl)-1H-isoindole-1,3(2H)-dione

> <SMILES>
O=C1CCC(C(=O)N1)N1C(=O)c2ccccc2C1=O

> <STAR_flag>
3 STAR

> <New STAR flag>
4 STAR: Smiles generated

> <Canonical_QSARr>
O=C1CCC(C(=O)N1)N1C(=O)c2ccccc2C1=O

> <InChI_Code_QSARr>
InChI=1S/C13H10N2O4/c16-10-6-5-9(11(17)14-10)15-12(18)7-3-1-2-4-8(7)13(15)19/h1-4,9H,5-6H2,(H,14,16,17)

> <InChI Key_QSARr>
UEJJHQNACJXSKW-UHFFFAOYSA-N

> <Salt_Solvent>
?

> <Salt_Solvent_ID>


> <MP>
270.0

> <EstMP>
274.67

> <ErrorMP>
4.67

> <gsid>
22524

> <dsstox_substance_id>
DTXSID9022524

> <qc_level>
DSSTox_Low

> <dsstox_compound_id>
DTXCID402524

> <Tr_1_Tst_0>
1

$$$$
100025.0
  -INDIGO-01081610012D

 43 45  0  0  0  0  0  0  0  0999 V2000
    7.0222    0.0681    0.0000 C   0  0  0  0  0  0  0  0  0  0  0  0
    5.4335    0.2586    0.0000 C   0  0  0  0  0  0  0  0  0  0  0  0
    4.8043    1.7296    0.0000 O   0  0  0  0  0  0  0  0  0  0  0  0
    4.4742   -1.0220    0.0000 O   0  0  0  0  0  0  0  0  0  0  0  0
    2.8856   -0.8315    0.0000 C   0  0  0  0  0  0  0  0  0  0  0  0
    1.8846    0.0001    0.0000 C   0  0  0  0  0  0  0  0  0  0  0  0
    2.2588   -1.5556    0.0000 C   0  0  0  0  0  0  0  0  0  0  0  0
    2.7941   -2.4288    0.0000 O   0  0  0  0  0  0  0  0  0  0  0  0
    1.3077   -2.8422    0.0000 O   0  0  0  0  0  0  0  0  0  0  0  0
    1.6820   -4.3979    0.0000 C   0  0  0  0  0  0  0  0  0  0  0  0
    2.0562   -5.9535    0.0000 H   0  0  0  0  0  0  0  0  0  0  0  0
    3.2163   -4.8516    0.0000 H   0  0  0  0  0  0  0  0  0  0  0  0
    0.5219   -5.4998    0.0000 H   0  0  0  0  0  0  0  0  0  0  0  0
    1.7865   -0.8121    0.0000 H   0  0  0  0  0  0  0  0  0  0  0  0
    0.0001    0.0001    0.0000 C   0  0  0  0  0  0  0  0  0  0  0  0
   -1.0082   -1.3815    0.0000 C   0  0  0  0  0  0  0  0  0  0  0  0
    0.1947   -0.6504    0.0000 C   0  0  0  0  0  0  0  0  0  0  0  0
    0.2714   -2.2487    0.0000 H   0  0  0  0  0  0  0  0  0  0  0  0
    0.8190   -1.1789    0.0000 H   0  0  0  0  0  0  0  0  0  0  0  0
    0.8164    0.7238    0.0000 C   0  0  0  0  0  0  0  0  0  0  0  0
   -0.2710    1.5770    0.0000 N   0  0  0  0  0  0  0  0  0  0  0  0
   -1.0904    2.9510    0.0000 C   0  0  0  0  0  0  0  0  0  0  0  0
   -1.9101    4.3251    0.0000 H   0  0  0  0  0  0  0  0  0  0  0  0
   -2.6904    2.9283    0.0000 H   0  0  0  0  0  0  0  0  0  0  0  0
   -0.3103    4.3479    0.0000 H   0  0  0  0  0  0  0  0  0  0  0  0
    1.3261    2.2403    0.0000 H   0  0  0  0  0  0  0  0  0  0  0  0
    2.6176    0.7538    0.0000 C   0  0  0  0  0  0  0  0  0  0  0  0
    4.2065    0.9410    0.0000 H   0  0  0  0  0  0  0  0  0  0  0  0
    2.5104    2.3502    0.0000 H   0  0  0  0  0  0  0  0  0  0  0  0
   -2.5631   -1.0036    0.0000 H   0  0  0  0  0  0  0  0  0  0  0  0
   -0.7630   -2.9625    0.0000 H   0  0  0  0  0  0  0  0  0  0  0  0
   -1.5579    0.3650    0.0000 H   0  0  0  0  0  0  0  0  0  0  0  0
    3.5108   -1.6429    0.0000 H   0  0  0  0  0  0  0  0  0  0  0  0
    7.9814    1.3486    0.0000 C   0  0  0  0  0  0  0  0  0  0  0  0
    7.3520    2.8197    0.0000 H   0  0  0  0  0  0  0  0  0  0  0  0
    9.5701    1.1581    0.0000 C   0  0  0  0  0  0  0  0  0  0  0  0
   10.5294    2.4385    0.0000 H   0  0  0  0  0  0  0  0  0  0  0  0
   10.1993   -0.3129    0.0000 C   0  0  0  0  0  0  0  0  0  0  0  0
   11.7880   -0.5036    0.0000 H   0  0  0  0  0  0  0  0  0  0  0  0
    9.2400   -1.5935    0.0000 C   0  0  0  0  0  0  0  0  0  0  0  0
    9.8694   -3.0645    0.0000 H   0  0  0  0  0  0  0  0  0  0  0  0
    7.6514   -1.4030    0.0000 C   0  0  0  0  0  0  0  0  0  0  0  0
    6.6921   -2.6835    0.0000 H   0  0  0  0  0  0  0  0  0  0  0  0
  1  2  1  0  0  0  0
  2  3  2  0  0  0  0
  2  4  1  0  0  0  0
  4  5  1  0  0  0  0
  5  6  1  0  0  0  0
  6  7  1  0  0  0  0
  7  8  2  0  0  0  0
  7  9  1  0  0  0  0
  9 10  1  0  0  0  0
 10 11  1  0  0  0  0
 10 12  1  0  0  0  0
 10 13  1  0  0  0  0
  6 14  1  0  0  0  0
  6 15  1  0  0  0  0
 15 16  1  0  0  0  0
 16 17  1  0  0  0  0
 17 18  1  0  0  0  0
 17 19  1  0  0  0  0
 17 20  1  0  0  0  0
 20 21  1  0  0  0  0
 21 15  1  0  0  0  0
 21 22  1  0  0  0  0
 22 23  1  0  0  0  0
 22 24  1  0  0  0  0
 22 25  1  0  0  0  0
 20 26  1  0  0  0  0
 20 27  1  0  0  0  0
 27  5  1  0  0  0  0
 27 28  1  0  0  0  0
 27 29  1  0  0  0  0
 16 30  1  0  0  0  0
 16 31  1  0  0  0  0
 15 32  1  0  0  0  0
  5 33  1  0  0  0  0
  1 34  4  0  0  0  0
 34 35  1  0  0  0  0
 34 36  4  0  0  0  0
 36 37  1  0  0  0  0
 36 38  4  0  0  0  0
 38 39  1  0  0  0  0
 38 40  4  0  0  0  0
 40 41  1  0  0  0  0
 40 42  4  0  0  0  0
 42  1  4  0  0  0  0
 42 43  1  0  0  0  0
M  END
> <ChemID>
100025.0

> <CAS>
50-36-2

> <CAS_checksum>
ValidCAS

> <NAME>
COCAINE

> <name_error>
Warning: Structure is taken from ACD/Dictionary

> <preferred_name>
Cocaine

> <iupac>
methyl (1R,2R,3S,5S)-3-(benzoyloxy)-8-methyl-8-azabicyclo[3.2.1]octane-2-carboxylate

> <SMILES>
COC(=O)[C@@H]1C2CCC(C[C@@H]1OC(=O)c1ccccc1)[N@@]2C

> <STAR_flag>
3 STAR Enhanced Stereochemistry

> <New STAR flag>
4 STAR: Smiles generated

> <Canonical_QSARr>
COC(=O)C1C2CCC(CC1OC(=O)c1ccccc1)N2C

> <InChI_Code_QSARr>
InChI=1S/C17H21NO4/c1-18-12-8-9-13(18)15(17(20)21-2)14(10-12)22-16(19)11-6-4-3-5-7-11/h3-7,12-15H,8-10H2,1-2H3

> <InChI Key_QSARr>
ZPUCINDJVBIVPJ-UHFFFAOYSA-N

> <Salt_Solvent>
?

> <Salt_Solvent_ID>


> <MP>
98.0

> <EstMP>
89.93

> <ErrorMP>
-8.07

> <gsid>
38443

> <dsstox_substance_id>
DTXSID2038443

> <qc_level>
DSSTox_Low

> <dsstox_compound_id>
DTXCID0018443

> <Tr_1_Tst_0>
1

$$$$
100026.0
  -INDIGO-01081610012D

 49 52  0  0  0  0  0  0  0  0999 V2000
    0.7999    1.3857    0.0000 C   0  0  0  0  0  0  0  0  0  0  0  0
   -0.0000    2.7712    0.0000 C   0  0  0  0  0  0  0  0  0  0  0  0
   -1.6001    2.7712    0.0000 C   0  0  0  0  0  0  0  0  0  0  0  0
   -2.4000    4.1569    0.0000 C   0  0  0  0  0  0  0  0  0  0  0  0
   -1.6001    5.5425    0.0000 C   0  0  0  0  0  0  0  0  0  0  0  0
   -0.0000    5.5425    0.0000 C   0  0  0  0  0  0  0  0  0  0  0  0
    0.7999    4.1569    0.0000 C   0  0  0  0  0  0  0  0  0  0  0  0
    2.4000    4.1569    0.0000 H   0  0  0  0  0  0  0  0  0  0  0  0
    0.7999    6.9282    0.0000 H   0  0  0  0  0  0  0  0  0  0  0  0
   -2.4000    6.9282    0.0000 H   0  0  0  0  0  0  0  0  0  0  0  0
   -3.8889    3.5713    0.0000 N   0  0  0  1  0  0  0  0  0  0  0  0
   -3.8889    1.9713    0.0000 C   0  0  0  0  0  0  0  0  0  0  0  0
   -5.2113    1.0704    0.0000 H   0  0  0  0  0  0  0  0  0  0  0  0
   -2.4000    1.3857    0.0000 C   0  0  0  0  0  0  0  0  0  0  0  0
   -1.6001    0.0001    0.0000 C   0  0  0  0  0  0  0  0  0  0  0  0
   -3.1034   -0.5473    0.0000 H   0  0  0  0  0  0  0  0  0  0  0  0
   -1.8777   -1.5757    0.0000 H   0  0  0  0  0  0  0  0  0  0  0  0
   -0.0000    0.0001    0.0000 C   0  0  0  0  0  0  0  0  0  0  0  0
   -0.7999   -1.3856    0.0000 H   0  0  0  0  0  0  0  0  0  0  0  0
    0.7999   -1.3856    0.0000 N   0  0  0  0  0  0  0  0  0  0  0  0
   -0.0000   -2.7713    0.0000 C   0  0  0  0  0  0  0  0  0  0  0  0
   -0.7999   -4.1569    0.0000 H   0  0  0  0  0  0  0  0  0  0  0  0
    0.7999   -4.1569    0.0000 H   0  0  0  0  0  0  0  0  0  0  0  0
   -1.6001   -2.7713    0.0000 H   0  0  0  0  0  0  0  0  0  0  0  0
    2.4000   -1.3856    0.0000 C   0  0  0  0  0  0  0  0  0  0  0  0
    2.1221   -2.9614    0.0000 H   0  0  0  0  0  0  0  0  0  0  0  0
    3.9035   -1.9328    0.0000 H   0  0  0  0  0  0  0  0  0  0  0  0
    3.2001    0.0001    0.0000 C   0  0  0  0  0  0  0  0  0  0  0  0
    4.7035   -0.5473    0.0000 C   0  0  0  0  0  0  0  0  0  0  0  0
    4.7035   -2.1473    0.0000 O   0  0  0  0  0  0  0  0  0  0  0  0
    6.2071    0.0001    0.0000 N   0  0  0  0  0  0  0  0  0  0  0  0
    6.7543    1.5035    0.0000 C   0  0  0  0  0  0  0  0  0  0  0  0
    7.3014    3.0070    0.0000 C   0  0  0  0  0  0  0  0  0  0  0  0
    7.8487    4.5106    0.0000 H   0  0  0  0  0  0  0  0  0  0  0  0
    8.8771    3.2849    0.0000 H   0  0  0  0  0  0  0  0  0  0  0  0
    6.2730    4.2327    0.0000 H   0  0  0  0  0  0  0  0  0  0  0  0
    8.2577    0.9563    0.0000 H   0  0  0  0  0  0  0  0  0  0  0  0
    5.2507    2.0508    0.0000 H   0  0  0  0  0  0  0  0  0  0  0  0
    7.2355   -1.2258    0.0000 C   0  0  0  0  0  0  0  0  0  0  0  0
    8.2639   -2.4514    0.0000 C   0  0  0  0  0  0  0  0  0  0  0  0
    9.2923   -3.6770    0.0000 H   0  0  0  0  0  0  0  0  0  0  0  0
    9.8396   -2.1735    0.0000 H   0  0  0  0  0  0  0  0  0  0  0  0
    7.7166   -3.9548    0.0000 H   0  0  0  0  0  0  0  0  0  0  0  0
    8.4612   -0.1972    0.0000 H   0  0  0  0  0  0  0  0  0  0  0  0
    6.0098   -2.2542    0.0000 H   0  0  0  0  0  0  0  0  0  0  0  0
    4.4256    1.0285    0.0000 H   0  0  0  0  0  0  0  0  0  0  0  0
    2.4000    1.3857    0.0000 C   0  0  0  0  0  0  0  0  0  0  0  0
    3.2001    2.7712    0.0000 H   0  0  0  0  0  0  0  0  0  0  0  0
   -5.2113    4.4722    0.0000 H   0  0  0  0  0  0  0  0  0  0  0  0
  1  2  1  0  0  0  0
  2  3  4  0  0  0  0
  3  4  4  0  0  0  0
  4  5  4  0  0  0  0
  5  6  4  0  0  0  0
  6  7  4  0  0  0  0
  7  2  4  0  0  0  0
  7  8  1  0  0  0  0
  6  9  1  0  0  0  0
  5 10  1  0  0  0  0
  4 11  4  0  0  0  0
 11 12  4  0  0  0  0
 12 13  1  0  0  0  0
 12 14  4  0  0  0  0
 14  3  4  0  0  0  0
 14 15  1  0  0  0  0
 15 16  1  0  0  0  0
 15 17  1  0  0  0  0
 15 18  1  0  0  0  0
 18  1  1  0  0  0  0
 18 19  1  0  0  0  0
 18 20  1  0  0  0  0
 20 21  1  0  0  0  0
 21 22  1  0  0  0  0
 21 23  1  0  0  0  0
 21 24  1  0  0  0  0
 20 25  1  0  0  0  0
 25 26  1  0  0  0  0
 25 27  1  0  0  0  0
 25 28  1  0  0  0  0
 28 29  1  0  0  0  0
 29 30  2  0  0  0  0
 29 31  1  0  0  0  0
 31 32  1  0  0  0  0
 32 33  1  0  0  0  0
 33 34  1  0  0  0  0
 33 35  1  0  0  0  0
 33 36  1  0  0  0  0
 32 37  1  0  0  0  0
 32 38  1  0  0  0  0
 31 39  1  0  0  0  0
 39 40  1  0  0  0  0
 40 41  1  0  0  0  0
 40 42  1  0  0  0  0
 40 43  1  0  0  0  0
 39 44  1  0  0  0  0
 39 45  1  0  0  0  0
 28 46  1  0  0  0  0
 28 47  1  0  0  0  0
 47  1  2  0  0  0  0
 47 48  1  0  0  0  0
 11 49  1  0  0  0  0
M  END
> <ChemID>
100026.0

> <CAS>
50-37-3

> <CAS_checksum>
ValidCAS

> <NAME>
LSD

> <name_error>
Warning: Structure is taken from ACD/Dictionary

> <preferred_name>
Lysergide

> <iupac>
(8beta)-N,N-diethyl-6-methyl-9,10-didehydroergoline-8-carboxamide

> <SMILES>
CN1C[C@@H](C=C2[C@H]1Cc1c[nH]c3cccc2c31)C(=O)N(CC)CC

> <STAR_flag>
3 STAR Enhanced Stereochemistry

> <New STAR flag>
4 STAR: Smiles generated

> <Canonical_QSARr>
CN1CC(C=C2C1Cc1c[nH]c3cccc2c31)C(=O)N(CC)CC

> <InChI_Code_QSARr>
InChI=1S/C20H25N3O/c1-4-23(5-2)20(24)14-9-16-15-7-6-8-17-19(15)13(11-21-17)10-18(16)22(3)12-14/h6-9,11,14,18,21H,4-5,10,12H2,1-3H3

> <InChI Key_QSARr>
VAYOSLLFUXYJDT-UHFFFAOYSA-N

> <Salt_Solvent>
?

> <Salt_Solvent_ID>


> <MP>
82.5

> <EstMP>
204.82

> <ErrorMP>
122.32

> <gsid>
23231

> <dsstox_substance_id>
DTXSID1023231

> <qc_level>
DSSTox_Low

> <dsstox_compound_id>
DTXCID003231

> <Tr_1_Tst_0>
0

$$$$
100027.0
  -INDIGO-01081610012D

 31 32  0  0  0  0  0  0  0  0999 V2000
    4.1570   -2.4000    0.0000 C   0  0  0  0  0  0  0  0  0  0  0  0
    5.6785   -2.8944    0.0000 N   0  0  0  1  0  0  0  0  0  0  0  0
    6.6190   -1.5999    0.0000 C   0  0  0  0  0  0  0  0  0  0  0  0
    8.2191   -1.5999    0.0000 H   0  0  0  0  0  0  0  0  0  0  0  0
    5.6785   -0.3056    0.0000 N   0  0  0  1  0  0  0  0  0  0  0  0
    6.1731    1.2161    0.0000 C   0  0  0  0  0  0  0  0  0  0  0  0
    6.6675    2.7378    0.0000 H   0  0  0  0  0  0  0  0  0  0  0  0
    7.7381    1.5488    0.0000 H   0  0  0  0  0  0  0  0  0  0  0  0
    5.1024    2.4052    0.0000 H   0  0  0  0  0  0  0  0  0  0  0  0
    4.1570   -0.8000    0.0000 C   0  0  0  0  0  0  0  0  0  0  0  0
    2.7713   -0.0000    0.0000 C   0  0  0  0  0  0  0  0  0  0  0  0
    2.7713    1.6001    0.0000 O   0  0  0  0  0  0  0  0  0  0  0  0
    1.3857   -0.8000    0.0000 N   0  0  0  0  0  0  0  0  0  0  0  0
   -0.0001   -0.0000    0.0000 C   0  0  0  0  0  0  0  0  0  0  0  0
   -1.3856    0.8000    0.0000 C   0  0  0  0  0  0  0  0  0  0  0  0
   -2.7714    1.6001    0.0000 C   0  0  0  0  0  0  0  0  0  0  0  0
   -4.1569    2.4000    0.0000 H   0  0  0  0  0  0  0  0  0  0  0  0
   -4.1569    0.8000    0.0000 H   0  0  0  0  0  0  0  0  0  0  0  0
   -2.7714    3.2000    0.0000 H   0  0  0  0  0  0  0  0  0  0  0  0
   -2.1856   -0.5857    0.0000 O   0  0  0  0  0  0  0  0  0  0  0  0
   -3.7857   -0.5857    0.0000 H   0  0  0  0  0  0  0  0  0  0  0  0
   -0.5857    2.1856    0.0000 H   0  0  0  0  0  0  0  0  0  0  0  0
   -0.8000   -1.3856    0.0000 H   0  0  0  0  0  0  0  0  0  0  0  0
    0.8001    1.3856    0.0000 H   0  0  0  0  0  0  0  0  0  0  0  0
    1.3857   -2.4000    0.0000 C   0  0  0  0  0  0  0  0  0  0  0  0
   -0.0001   -3.2000    0.0000 O   0  0  0  0  0  0  0  0  0  0  0  0
    2.7713   -3.2000    0.0000 N   0  0  0  0  0  0  0  0  0  0  0  0
    2.7713   -4.7999    0.0000 C   0  0  0  0  0  0  0  0  0  0  0  0
    2.7713   -6.4000    0.0000 H   0  0  0  0  0  0  0  0  0  0  0  0
    1.3857   -5.6000    0.0000 H   0  0  0  0  0  0  0  0  0  0  0  0
    4.1570   -5.6000    0.0000 H   0  0  0  0  0  0  0  0  0  0  0  0
  1  2  4  0  0  0  0
  2  3  4  0  0  0  0
  3  4  1  0  0  0  0
  3  5  4  0  0  0  0
  5  6  1  0  0  0  0
  6  7  1  0  0  0  0
  6  8  1  0  0  0  0
  6  9  1  0  0  0  0
  5 10  4  0  0  0  0
 10  1  4  0  0  0  0
 10 11  1  0  0  0  0
 11 12  2  0  0  0  0
 11 13  1  0  0  0  0
 13 14  1  0  0  0  0
 14 15  1  0  0  0  0
 15 16  1  0  0  0  0
 16 17  1  0  0  0  0
 16 18  1  0  0  0  0
 16 19  1  0  0  0  0
 15 20  1  0  0  0  0
 20 21  1  0  0  0  0
 15 22  1  0  0  0  0
 14 23  1  0  0  0  0
 14 24  1  0  0  0  0
 13 25  1  0  0  0  0
 25 26  2  0  0  0  0
 25 27  1  0  0  0  0
 27  1  1  0  0  0  0
 27 28  1  0  0  0  0
 28 29  1  0  0  0  0
 28 30  1  0  0  0  0
 28 31  1  0  0  0  0
M  END
> <ChemID>
100027.0

> <CAS>
50-39-5

> <CAS_checksum>
ValidCAS

> <NAME>
Protheobromine

> <name_error>
Warning: Structure is taken from ACD/Dictionary

> <preferred_name>


> <iupac>


> <SMILES>
CN1c2[n]c[n](C)c2C(=O)N(CC(C)O)C1=O

> <STAR_flag>
2 STAR: Molfile, Name, CAS unverified

> <New STAR flag>
3 STAR: Molfile, Name, Smiles generated

> <Canonical_QSARr>
CN1c2[n]c[n](C)c2C(=O)N(CC(C)O)C1=O

> <InChI_Code_QSARr>
InChI=1S/C10H14N4O3/c1-6(15)4-14-9(16)7-8(11-5-12(7)2)13(3)10(14)17/h5-6,15H,4H2,1-3H3

> <InChI Key_QSARr>
MXRGZXBFSKSZPH-UHFFFAOYSA-N

> <Salt_Solvent>
?

> <Salt_Solvent_ID>


> <MP>
141.0

> <EstMP>
206.41

> <ErrorMP>
65.41

> <gsid>


> <dsstox_substance_id>


> <qc_level>


> <dsstox_compound_id>


> <Tr_1_Tst_0>
1

$$$$
100028.0
  -INDIGO-01081610012D

 48 49  0  0  0  0  0  0  0  0999 V2000
   -1.2812    4.1148    0.0000 C   0  0  0  0  0  0  0  0  0  0  0  0
   -0.2528    2.8891    0.0000 C   0  0  0  0  0  0  0  0  0  0  0  0
    1.2508    3.4364    0.0000 H   0  0  0  0  0  0  0  0  0  0  0  0
   -0.7999    1.3856    0.0000 C   0  0  0  0  0  0  0  0  0  0  0  0
   -0.0000   -0.0000    0.0000 C   0  0  0  0  0  0  0  0  0  0  0  0
   -0.0000   -1.5999    0.0000 C   0  0  0  0  0  0  0  0  0  0  0  0
   -1.3856   -2.4000    0.0000 C   0  0  0  0  0  0  0  0  0  0  0  0
   -2.7712   -1.5999    0.0000 H   0  0  0  0  0  0  0  0  0  0  0  0
   -1.3856   -4.0001    0.0000 C   0  0  0  0  0  0  0  0  0  0  0  0
   -2.7712   -4.7999    0.0000 H   0  0  0  0  0  0  0  0  0  0  0  0
   -0.0000   -4.7999    0.0000 C   0  0  0  0  0  0  0  0  0  0  0  0
   -0.0000   -6.4000    0.0000 H   0  0  0  0  0  0  0  0  0  0  0  0
    1.3858   -4.0001    0.0000 C   0  0  0  0  0  0  0  0  0  0  0  0
    2.7713   -4.7999    0.0000 H   0  0  0  0  0  0  0  0  0  0  0  0
    1.3858   -2.4000    0.0000 C   0  0  0  0  0  0  0  0  0  0  0  0
    2.7713   -1.5999    0.0000 H   0  0  0  0  0  0  0  0  0  0  0  0
    1.5035    0.5473    0.0000 C   0  0  0  0  0  0  0  0  0  0  0  0
    2.7291   -0.4813    0.0000 O   0  0  0  0  0  0  0  0  0  0  0  0
    4.2327    0.0660    0.0000 C   0  0  0  0  0  0  0  0  0  0  0  0
    5.7362    0.6133    0.0000 C   0  0  0  0  0  0  0  0  0  0  0  0
    7.2397    1.1604    0.0000 N   0  0  0  0  0  0  0  0  0  0  0  0
    8.4654    0.1320    0.0000 C   0  0  0  0  0  0  0  0  0  0  0  0
    9.6910   -0.8964    0.0000 C   0  0  0  0  0  0  0  0  0  0  0  0
   10.9167   -1.9248    0.0000 H   0  0  0  0  0  0  0  0  0  0  0  0
   11.1946   -0.3491    0.0000 H   0  0  0  0  0  0  0  0  0  0  0  0
    9.4131   -2.4721    0.0000 H   0  0  0  0  0  0  0  0  0  0  0  0
    9.4938    1.3576    0.0000 H   0  0  0  0  0  0  0  0  0  0  0  0
    7.4369   -1.0937    0.0000 H   0  0  0  0  0  0  0  0  0  0  0  0
    7.5176    2.7361    0.0000 C   0  0  0  0  0  0  0  0  0  0  0  0
    7.7953    4.3118    0.0000 C   0  0  0  0  0  0  0  0  0  0  0  0
    8.0732    5.8875    0.0000 H   0  0  0  0  0  0  0  0  0  0  0  0
    9.2988    4.8591    0.0000 H   0  0  0  0  0  0  0  0  0  0  0  0
    6.5697    5.3402    0.0000 H   0  0  0  0  0  0  0  0  0  0  0  0
    9.0933    2.4582    0.0000 H   0  0  0  0  0  0  0  0  0  0  0  0
    5.9418    3.0140    0.0000 H   0  0  0  0  0  0  0  0  0  0  0  0
    6.2834   -0.8902    0.0000 H   0  0  0  0  0  0  0  0  0  0  0  0
    5.1890    2.1168    0.0000 H   0  0  0  0  0  0  0  0  0  0  0  0
    4.7798   -1.4375    0.0000 H   0  0  0  0  0  0  0  0  0  0  0  0
    3.6855    1.5695    0.0000 H   0  0  0  0  0  0  0  0  0  0  0  0
    1.7814    2.1230    0.0000 O   0  0  0  0  0  0  0  0  0  0  0  0
   -1.5757   -0.2779    0.0000 H   0  0  0  0  0  0  0  0  0  0  0  0
   -2.3758    1.1077    0.0000 C   0  0  0  0  0  0  0  0  0  0  0  0
   -2.9230   -0.3956    0.0000 H   0  0  0  0  0  0  0  0  0  0  0  0
   -3.4042    2.3336    0.0000 C   0  0  0  0  0  0  0  0  0  0  0  0
   -4.9798    2.0557    0.0000 H   0  0  0  0  0  0  0  0  0  0  0  0
   -2.8568    3.8369    0.0000 C   0  0  0  0  0  0  0  0  0  0  0  0
   -3.8853    5.0626    0.0000 H   0  0  0  0  0  0  0  0  0  0  0  0
   -0.7340    5.6183    0.0000 H   0  0  0  0  0  0  0  0  0  0  0  0
  1  2  4  0  0  0  0
  2  3  1  0  0  0  0
  2  4  4  0  0  0  0
  4  5  1  0  0  0  0
  5  6  1  0  0  0  0
  6  7  4  0  0  0  0
  7  8  1  0  0  0  0
  7  9  4  0  0  0  0
  9 10  1  0  0  0  0
  9 11  4  0  0  0  0
 11 12  1  0  0  0  0
 11 13  4  0  0  0  0
 13 14  1  0  0  0  0
 13 15  4  0  0  0  0
 15  6  4  0  0  0  0
 15 16  1  0  0  0  0
  5 17  1  0  0  0  0
 17 18  1  0  0  0  0
 18 19  1  0  0  0  0
 19 20  1  0  0  0  0
 20 21  1  0  0  0  0
 21 22  1  0  0  0  0
 22 23  1  0  0  0  0
 23 24  1  0  0  0  0
 23 25  1  0  0  0  0
 23 26  1  0  0  0  0
 22 27  1  0  0  0  0
 22 28  1  0  0  0  0
 21 29  1  0  0  0  0
 29 30  1  0  0  0  0
 30 31  1  0  0  0  0
 30 32  1  0  0  0  0
 30 33  1  0  0  0  0
 29 34  1  0  0  0  0
 29 35  1  0  0  0  0
 20 36  1  0  0  0  0
 20 37  1  0  0  0  0
 19 38  1  0  0  0  0
 19 39  1  0  0  0  0
 17 40  2  0  0  0  0
  5 41  1  0  0  0  0
  4 42  4  0  0  0  0
 42 43  1  0  0  0  0
 42 44  4  0  0  0  0
 44 45  1  0  0  0  0
 44 46  4  0  0  0  0
 46  1  4  0  0  0  0
 46 47  1  0  0  0  0
  1 48  1  0  0  0  0
M  END
> <ChemID>
100028.0

> <CAS>
50-42-0

> <CAS_checksum>
ValidCAS

> <NAME>
Adiphenine

> <name_error>


> <preferred_name>
Adiphenine

> <iupac>
2-(diethylamino)ethyl diphenylacetate

> <SMILES>
CCN(CCOC(=O)C(c1ccccc1)c1ccccc1)CC

> <STAR_flag>
2 STAR: Molfile, Name, CAS not matching

> <New STAR flag>
4 STAR: CAS retrieved from DSSTOX: 64-95-9, Smiles generated

> <Canonical_QSARr>
CCN(CCOC(=O)C(c1ccccc1)c1ccccc1)CC

> <InChI_Code_QSARr>
InChI=1S/C20H25NO2/c1-3-21(4-2)15-16-23-20(22)19(17-11-7-5-8-12-17)18-13-9-6-10-14-18/h5-14,19H,3-4,15-16H2,1-2H3

> <InChI Key_QSARr>
JGOAIQNSOGZNBX-UHFFFAOYSA-N

> <Salt_Solvent>
?

> <Salt_Solvent_ID>


> <MP>
113.5

> <EstMP>
135.5

> <ErrorMP>
22.0

> <gsid>
22561

> <dsstox_substance_id>
DTXSID0022561

> <qc_level>
DSSTox_Low

> <dsstox_compound_id>
DTXCID402561

> <Tr_1_Tst_0>
1

$$$$
100029.0
  -INDIGO-01081610012D

 15 15  0  0  0  0  0  0  0  0999 V2000
    2.4000    1.3856    0.0000 C   0  0  0  0  0  0  0  0  0  0  0  0
    0.8000    1.3856    0.0000 C   0  0  0  0  0  0  0  0  0  0  0  0
    0.0000    2.7713    0.0000 Cl  0  0  0  0  0  0  0  0  0  0  0  0
    0.0000    0.0000    0.0000 C   0  0  0  0  0  0  0  0  0  0  0  0
   -1.6000    0.0000    0.0000 C   0  0  0  0  0  0  0  0  0  0  0  0
   -2.4001   -1.3856    0.0000 O   0  0  0  0  0  0  0  0  0  0  0  0
   -4.0000   -1.3856    0.0000 H   0  0  0  0  0  0  0  0  0  0  0  0
   -2.4001    1.3856    0.0000 O   0  0  0  0  0  0  0  0  0  0  0  0
    0.8000   -1.3856    0.0000 C   0  0  0  0  0  0  0  0  0  0  0  0
    0.0000   -2.7713    0.0000 Cl  0  0  0  0  0  0  0  0  0  0  0  0
    2.4000   -1.3856    0.0000 C   0  0  0  0  0  0  0  0  0  0  0  0
    3.2001   -2.7713    0.0000 H   0  0  0  0  0  0  0  0  0  0  0  0
    3.2001    0.0000    0.0000 C   0  0  0  0  0  0  0  0  0  0  0  0
    4.8000    0.0000    0.0000 Cl  0  0  0  0  0  0  0  0  0  0  0  0
    3.2001    2.7713    0.0000 H   0  0  0  0  0  0  0  0  0  0  0  0
  1  2  4  0  0  0  0
  2  3  1  0  0  0  0
  2  4  4  0  0  0  0
  4  5  1  0  0  0  0
  5  6  1  0  0  0  0
  6  7  1  0  0  0  0
  5  8  2  0  0  0  0
  4  9  4  0  0  0  0
  9 10  1  0  0  0  0
  9 11  4  0  0  0  0
 11 12  1  0  0  0  0
 11 13  4  0  0  0  0
 13  1  4  0  0  0  0
 13 14  1  0  0  0  0
  1 15  1  0  0  0  0
M  END
> <ChemID>
100029.0

> <CAS>
50-43-1

> <CAS_checksum>
ValidCAS

> <NAME>
2,4,6-Trichlorobenzoic acid

> <name_error>
Ok

> <preferred_name>
2,4,6-Trichlorobenzoic acid

> <iupac>
2,4,6-TRICHLOROBENZOIC ACID

> <SMILES>
OC(=O)c1c(Cl)cc(Cl)cc1Cl

> <STAR_flag>
3 STAR

> <New STAR flag>
4 STAR: Smiles generated

> <Canonical_QSARr>
OC(=O)c1c(Cl)cc(Cl)cc1Cl

> <InChI_Code_QSARr>
InChI=1S/C7H3Cl3O2/c8-3-1-4(9)6(7(11)12)5(10)2-3/h1-2H,(H,11,12)

> <InChI Key_QSARr>
RAFFVQBMVYYTQS-UHFFFAOYSA-N

> <Salt_Solvent>
?

> <Salt_Solvent_ID>


> <MP>
162.0

> <EstMP>
108.94

> <ErrorMP>
-53.06

> <gsid>
75329

> <dsstox_substance_id>
DTXSID9075329

> <qc_level>
Public_High

> <dsstox_compound_id>
DTXCID9040764

> <Tr_1_Tst_0>
1

$$$$
100030.0
  -INDIGO-01081610012D

 15 15  0  0  0  0  0  0  0  0999 V2000
    2.4001   -1.3856    0.0000 O   0  0  0  0  0  0  0  0  0  0  0  0
    1.6000    0.0000    0.0000 C   0  0  0  0  0  0  0  0  0  0  0  0
   -0.0000   -0.0000    0.0000 C   0  0  0  0  0  0  0  0  0  0  0  0
   -0.8000    1.3856    0.0000 C   0  0  0  0  0  0  0  0  0  0  0  0
   -0.0000    2.7713    0.0000 Cl  0  0  0  0  0  0  0  0  0  0  0  0
   -2.4000    1.3856    0.0000 C   0  0  0  0  0  0  0  0  0  0  0  0
   -3.2001    2.7713    0.0000 Cl  0  0  0  0  0  0  0  0  0  0  0  0
   -3.2001   -0.0000    0.0000 C   0  0  0  0  0  0  0  0  0  0  0  0
   -4.8000   -0.0000    0.0000 H   0  0  0  0  0  0  0  0  0  0  0  0
   -2.4000   -1.3856    0.0000 C   0  0  0  0  0  0  0  0  0  0  0  0
   -3.2001   -2.7713    0.0000 H   0  0  0  0  0  0  0  0  0  0  0  0
   -0.8000   -1.3856    0.0000 C   0  0  0  0  0  0  0  0  0  0  0  0
   -0.0000   -2.7713    0.0000 H   0  0  0  0  0  0  0  0  0  0  0  0
    2.4001    1.3856    0.0000 O   0  0  0  0  0  0  0  0  0  0  0  0
    4.0000   -1.3856    0.0000 H   0  0  0  0  0  0  0  0  0  0  0  0
  1  2  1  0  0  0  0
  2  3  1  0  0  0  0
  3  4  4  0  0  0  0
  4  5  1  0  0  0  0
  4  6  4  0  0  0  0
  6  7  1  0  0  0  0
  6  8  4  0  0  0  0
  8  9  1  0  0  0  0
  8 10  4  0  0  0  0
 10 11  1  0  0  0  0
 10 12  4  0  0  0  0
 12  3  4  0  0  0  0
 12 13  1  0  0  0  0
  2 14  2  0  0  0  0
  1 15  1  0  0  0  0
M  END
> <ChemID>
100030.0

> <CAS>
50-45-3

> <CAS_checksum>
ValidCAS

> <NAME>
Benzoic acid, 2,3-dichloro-

> <name_error>
Ok

> <preferred_name>
2,3-Dichlorobenzoic acid

> <iupac>
2,3-dichlorobenzoic acid

> <SMILES>
OC(=O)c1cccc(Cl)c1Cl

> <STAR_flag>
3 STAR

> <New STAR flag>
4 STAR: Smiles generated

> <Canonical_QSARr>
OC(=O)c1cccc(Cl)c1Cl

> <InChI_Code_QSARr>
InChI=1S/C7H4Cl2O2/c8-5-3-1-2-4(6(5)9)7(10)11/h1-3H,(H,10,11)

> <InChI Key_QSARr>
QAOJBHRZQQDFHA-UHFFFAOYSA-N

> <Salt_Solvent>
?

> <Salt_Solvent_ID>


> <MP>
169.0

> <EstMP>
88.53

> <ErrorMP>
-80.47

> <gsid>
24976

> <dsstox_substance_id>
DTXSID5024976

> <qc_level>
DSSTox_Low

> <dsstox_compound_id>
DTXCID704976

> <Tr_1_Tst_0>
0

$$$$
100031.0
  -INDIGO-01081610012D

 44 46  0  0  0  0  0  0  0  0999 V2000
   -2.5975    4.0221    0.0000 C   0  0  0  0  0  0  0  0  0  0  0  0
   -3.3976    2.6366    0.0000 C   0  0  0  0  0  0  0  0  0  0  0  0
   -4.9977    2.6366    0.0000 H   0  0  0  0  0  0  0  0  0  0  0  0
   -2.5975    1.2510    0.0000 C   0  0  0  0  0  0  0  0  0  0  0  0
   -3.5953   -0.0000    0.0000 C   0  0  0  0  0  0  0  0  0  0  0  0
   -3.2392   -1.5599    0.0000 C   0  0  0  0  0  0  0  0  0  0  0  0
   -1.7976   -2.2540    0.0000 C   0  0  0  0  0  0  0  0  0  0  0  0
   -1.9171   -3.8496    0.0000 C   0  0  0  0  0  0  0  0  0  0  0  0
   -3.3586   -4.5439    0.0000 H   0  0  0  0  0  0  0  0  0  0  0  0
   -0.5951   -4.7509    0.0000 C   0  0  0  0  0  0  0  0  0  0  0  0
   -0.7148   -6.3465    0.0000 H   0  0  0  0  0  0  0  0  0  0  0  0
    0.8464   -4.0568    0.0000 C   0  0  0  0  0  0  0  0  0  0  0  0
    2.1683   -4.9580    0.0000 H   0  0  0  0  0  0  0  0  0  0  0  0
    0.9660   -2.4612    0.0000 C   0  0  0  0  0  0  0  0  0  0  0  0
    2.4076   -1.7671    0.0000 H   0  0  0  0  0  0  0  0  0  0  0  0
   -0.3561   -1.5599    0.0000 C   0  0  0  0  0  0  0  0  0  0  0  0
   -0.0000   -0.0000    0.0000 C   0  0  0  0  0  0  0  0  0  0  0  0
    1.5600    0.3560    0.0000 C   0  0  0  0  0  0  0  0  0  0  0  0
    2.2898    1.7798    0.0000 C   0  0  0  0  0  0  0  0  0  0  0  0
    3.8775    1.5809    0.0000 C   0  0  0  0  0  0  0  0  0  0  0  0
    5.4649    1.3820    0.0000 N   0  0  0  0  0  0  0  0  0  0  0  0
    6.4310    2.6574    0.0000 C   0  0  0  0  0  0  0  0  0  0  0  0
    7.3972    3.9328    0.0000 H   0  0  0  0  0  0  0  0  0  0  0  0
    8.0187    2.4585    0.0000 H   0  0  0  0  0  0  0  0  0  0  0  0
    5.8096    4.1317    0.0000 H   0  0  0  0  0  0  0  0  0  0  0  0
    6.0866   -0.0924    0.0000 C   0  0  0  0  0  0  0  0  0  0  0  0
    7.6740   -0.2915    0.0000 H   0  0  0  0  0  0  0  0  0  0  0  0
    6.7080   -1.5667    0.0000 H   0  0  0  0  0  0  0  0  0  0  0  0
    5.1203   -1.3678    0.0000 H   0  0  0  0  0  0  0  0  0  0  0  0
    4.0764    3.1686    0.0000 H   0  0  0  0  0  0  0  0  0  0  0  0
    3.6785   -0.0066    0.0000 H   0  0  0  0  0  0  0  0  0  0  0  0
    2.4887    3.3675    0.0000 H   0  0  0  0  0  0  0  0  0  0  0  0
    0.7023    1.9789    0.0000 H   0  0  0  0  0  0  0  0  0  0  0  0
    2.6483   -0.8168    0.0000 H   0  0  0  0  0  0  0  0  0  0  0  0
   -0.9976    1.2510    0.0000 C   0  0  0  0  0  0  0  0  0  0  0  0
   -0.1975    2.6366    0.0000 C   0  0  0  0  0  0  0  0  0  0  0  0
    1.4024    2.6366    0.0000 H   0  0  0  0  0  0  0  0  0  0  0  0
   -0.9976    4.0221    0.0000 C   0  0  0  0  0  0  0  0  0  0  0  0
   -0.1975    5.4079    0.0000 H   0  0  0  0  0  0  0  0  0  0  0  0
   -4.8148   -1.8377    0.0000 H   0  0  0  0  0  0  0  0  0  0  0  0
   -3.5953   -3.1198    0.0000 H   0  0  0  0  0  0  0  0  0  0  0  0
   -4.5928    1.2508    0.0000 H   0  0  0  0  0  0  0  0  0  0  0  0
   -5.1354   -0.4333    0.0000 H   0  0  0  0  0  0  0  0  0  0  0  0
   -3.3976    5.4079    0.0000 H   0  0  0  0  0  0  0  0  0  0  0  0
  1  2  4  0  0  0  0
  2  3  1  0  0  0  0
  2  4  4  0  0  0  0
  4  5  1  0  0  0  0
  5  6  1  0  0  0  0
  6  7  1  0  0  0  0
  7  8  4  0  0  0  0
  8  9  1  0  0  0  0
  8 10  4  0  0  0  0
 10 11  1  0  0  0  0
 10 12  4  0  0  0  0
 12 13  1  0  0  0  0
 12 14  4  0  0  0  0
 14 15  1  0  0  0  0
 14 16  4  0  0  0  0
 16  7  4  0  0  0  0
 16 17  1  0  0  0  0
 17 18  2  0  0  0  0
 18 19  1  0  0  0  0
 19 20  1  0  0  0  0
 20 21  1  0  0  0  0
 21 22  1  0  0  0  0
 22 23  1  0  0  0  0
 22 24  1  0  0  0  0
 22 25  1  0  0  0  0
 21 26  1  0  0  0  0
 26 27  1  0  0  0  0
 26 28  1  0  0  0  0
 26 29  1  0  0  0  0
 20 30  1  0  0  0  0
 20 31  1  0  0  0  0
 19 32  1  0  0  0  0
 19 33  1  0  0  0  0
 18 34  1  0  0  0  0
 17 35  1  0  0  0  0
 35  4  4  0  0  0  0
 35 36  4  0  0  0  0
 36 37  1  0  0  0  0
 36 38  4  0  0  0  0
 38  1  4  0  0  0  0
 38 39  1  0  0  0  0
  6 40  1  0  0  0  0
  6 41  1  0  0  0  0
  5 42  1  0  0  0  0
  5 43  1  0  0  0  0
  1 44  1  0  0  0  0
M  END
> <ChemID>
100031.0

> <CAS>
50-48-6

> <CAS_checksum>
ValidCAS

> <NAME>
AMITRYPTYLINE

> <name_error>


> <preferred_name>
Amitriptyline

> <iupac>
3-(10,11-dihydro-5H-dibenzo[a,d][7]annulen-5-ylidene)-N,N-dimethylpropan-1-amine

> <SMILES>
CN(C)CCC=C1c2ccccc2CCc2ccccc21

> <STAR_flag>
2 STAR: Molfile, CAS

> <New STAR flag>
4 STAR: Name retrieved from DSSTOX, Smiles generated

> <Canonical_QSARr>
CN(C)CCC=C1c2ccccc2CCc2ccccc21

> <InChI_Code_QSARr>
InChI=1S/C20H23N/c1-21(2)15-7-12-20-18-10-5-3-8-16(18)13-14-17-9-4-6-11-19(17)20/h3-6,8-12H,7,13-15H2,1-2H3

> <InChI Key_QSARr>
KRMDCWKBEZIMAB-UHFFFAOYSA-N

> <Salt_Solvent>
?

> <Salt_Solvent_ID>


> <MP>
196.5

> <EstMP>
134.41

> <ErrorMP>
-62.09

> <gsid>
22594

> <dsstox_substance_id>
DTXSID7022594

> <qc_level>
DSSTox_Low

> <dsstox_compound_id>
DTXCID502594

> <Tr_1_Tst_0>
1

$$$$
100032.0
  -INDIGO-01081610012D

 45 47  0  0  0  0  0  0  0  0999 V2000
    0.0001    0.0000    0.0000 N   0  0  0  0  0  0  0  0  0  0  0  0
   -1.5598   -0.3560    0.0000 C   0  0  0  0  0  0  0  0  0  0  0  0
   -3.1197   -0.7120    0.0000 C   0  0  0  0  0  0  0  0  0  0  0  0
   -4.6796   -1.0681    0.0000 C   0  0  0  0  0  0  0  0  0  0  0  0
   -6.2395   -1.4241    0.0000 N   0  0  0  0  0  0  0  0  0  0  0  0
   -7.3278   -0.2513    0.0000 C   0  0  0  0  0  0  0  0  0  0  0  0
   -8.4161    0.9216    0.0000 H   0  0  0  0  0  0  0  0  0  0  0  0
   -8.8877   -0.6073    0.0000 H   0  0  0  0  0  0  0  0  0  0  0  0
   -6.8562    1.2776    0.0000 H   0  0  0  0  0  0  0  0  0  0  0  0
   -6.7111   -2.9530    0.0000 C   0  0  0  0  0  0  0  0  0  0  0  0
   -7.1827   -4.4820    0.0000 H   0  0  0  0  0  0  0  0  0  0  0  0
   -8.2710   -3.3092    0.0000 H   0  0  0  0  0  0  0  0  0  0  0  0
   -5.6228   -4.1260    0.0000 H   0  0  0  0  0  0  0  0  0  0  0  0
   -5.0357    0.4918    0.0000 H   0  0  0  0  0  0  0  0  0  0  0  0
   -4.3235   -2.6280    0.0000 H   0  0  0  0  0  0  0  0  0  0  0  0
   -3.4758    0.8478    0.0000 H   0  0  0  0  0  0  0  0  0  0  0  0
   -2.7636   -2.2719    0.0000 H   0  0  0  0  0  0  0  0  0  0  0  0
   -1.2040   -1.9159    0.0000 H   0  0  0  0  0  0  0  0  0  0  0  0
   -1.9159    1.2039    0.0000 H   0  0  0  0  0  0  0  0  0  0  0  0
    0.3559    1.5599    0.0000 C   0  0  0  0  0  0  0  0  0  0  0  0
   -0.9660    2.4612    0.0000 C   0  0  0  0  0  0  0  0  0  0  0  0
   -0.8464    4.0568    0.0000 C   0  0  0  0  0  0  0  0  0  0  0  0
    0.5952    4.7509    0.0000 C   0  0  0  0  0  0  0  0  0  0  0  0
    1.9171    3.8496    0.0000 C   0  0  0  0  0  0  0  0  0  0  0  0
    3.3587    4.5439    0.0000 H   0  0  0  0  0  0  0  0  0  0  0  0
    1.7975    2.2540    0.0000 C   0  0  0  0  0  0  0  0  0  0  0  0
    3.2391    1.5599    0.0000 C   0  0  0  0  0  0  0  0  0  0  0  0
    4.8148    1.8377    0.0000 H   0  0  0  0  0  0  0  0  0  0  0  0
    3.5951    3.1198    0.0000 H   0  0  0  0  0  0  0  0  0  0  0  0
    3.5951    0.0000    0.0000 C   0  0  0  0  0  0  0  0  0  0  0  0
    4.5927   -1.2508    0.0000 H   0  0  0  0  0  0  0  0  0  0  0  0
    5.1354    0.4333    0.0000 H   0  0  0  0  0  0  0  0  0  0  0  0
    2.5976   -1.2510    0.0000 C   0  0  0  0  0  0  0  0  0  0  0  0
    3.3976   -2.6366    0.0000 C   0  0  0  0  0  0  0  0  0  0  0  0
    2.5976   -4.0223    0.0000 C   0  0  0  0  0  0  0  0  0  0  0  0
    0.9977   -4.0223    0.0000 C   0  0  0  0  0  0  0  0  0  0  0  0
    0.1976   -2.6366    0.0000 C   0  0  0  0  0  0  0  0  0  0  0  0
   -1.3781   -2.9144    0.0000 H   0  0  0  0  0  0  0  0  0  0  0  0
    0.9977   -1.2510    0.0000 C   0  0  0  0  0  0  0  0  0  0  0  0
    0.1976   -5.4079    0.0000 H   0  0  0  0  0  0  0  0  0  0  0  0
    3.3976   -5.4079    0.0000 H   0  0  0  0  0  0  0  0  0  0  0  0
    4.9976   -2.6366    0.0000 H   0  0  0  0  0  0  0  0  0  0  0  0
    0.7148    6.3465    0.0000 H   0  0  0  0  0  0  0  0  0  0  0  0
   -2.1684    4.9580    0.0000 H   0  0  0  0  0  0  0  0  0  0  0  0
   -2.5062    2.0278    0.0000 H   0  0  0  0  0  0  0  0  0  0  0  0
  1  2  1  0  0  0  0
  2  3  1  0  0  0  0
  3  4  1  0  0  0  0
  4  5  1  0  0  0  0
  5  6  1  0  0  0  0
  6  7  1  0  0  0  0
  6  8  1  0  0  0  0
  6  9  1  0  0  0  0
  5 10  1  0  0  0  0
 10 11  1  0  0  0  0
 10 12  1  0  0  0  0
 10 13  1  0  0  0  0
  4 14  1  0  0  0  0
  4 15  1  0  0  0  0
  3 16  1  0  0  0  0
  3 17  1  0  0  0  0
  2 18  1  0  0  0  0
  2 19  1  0  0  0  0
  1 20  1  0  0  0  0
 20 21  4  0  0  0  0
 21 22  4  0  0  0  0
 22 23  4  0  0  0  0
 23 24  4  0  0  0  0
 24 25  1  0  0  0  0
 24 26  4  0  0  0  0
 26 20  4  0  0  0  0
 26 27  1  0  0  0  0
 27 28  1  0  0  0  0
 27 29  1  0  0  0  0
 27 30  1  0  0  0  0
 30 31  1  0  0  0  0
 30 32  1  0  0  0  0
 30 33  1  0  0  0  0
 33 34  4  0  0  0  0
 34 35  4  0  0  0  0
 35 36  4  0  0  0  0
 36 37  4  0  0  0  0
 37 38  1  0  0  0  0
 37 39  4  0  0  0  0
 39  1  1  0  0  0  0
 39 33  4  0  0  0  0
 36 40  1  0  0  0  0
 35 41  1  0  0  0  0
 34 42  1  0  0  0  0
 23 43  1  0  0  0  0
 22 44  1  0  0  0  0
 21 45  1  0  0  0  0
M  END
> <ChemID>
100032.0

> <CAS>
50-49-7

> <CAS_checksum>
ValidCAS

> <NAME>
IMIPRAMINE

> <name_error>
Warning: Structure is taken from ACD/Dictionary

> <preferred_name>
Imipramine

> <iupac>
3-(10,11-dihydro-5H-dibenzo[b,f]azepin-5-yl)-N,N-dimethylpropan-1-amine

> <SMILES>
CN(C)CCCN1c2ccccc2CCc2ccccc12

> <STAR_flag>
3 STAR

> <New STAR flag>
4 STAR: Smiles generated

> <Canonical_QSARr>
CN(C)CCCN1c2ccccc2CCc2ccccc12

> <InChI_Code_QSARr>
InChI=1S/C19H24N2/c1-20(2)14-7-15-21-18-10-5-3-8-16(18)12-13-17-9-4-6-11-19(17)21/h3-6,8-11H,7,12-15H2,1-2H3

> <InChI Key_QSARr>
BCGWQEUPMDMJNV-UHFFFAOYSA-N

> <Salt_Solvent>
?

> <Salt_Solvent_ID>


> <MP>
174.5

> <EstMP>
140.91

> <ErrorMP>
-33.59

> <gsid>
43881

> <dsstox_substance_id>
DTXSID1043881

> <qc_level>
DSSTox_Low

> <dsstox_compound_id>
DTXCID9023881

> <Tr_1_Tst_0>
1

$$$$
100033.0
  -INDIGO-01081610012D

 56 60  0  0  0  0  0  0  0  0999 V2000
   -0.0001   -0.0000    0.0000 C   0  0  0  0  0  0  0  0  0  0  0  0
    0.9403   -1.2944    0.0000 C   0  0  0  0  0  0  0  0  0  0  0  0
    2.0915   -2.4059    0.0000 H   0  0  0  0  0  0  0  0  0  0  0  0
    1.1076   -2.8857    0.0000 H   0  0  0  0  0  0  0  0  0  0  0  0
    1.7322   -1.2586    0.0000 H   0  0  0  0  0  0  0  0  0  0  0  0
    1.5652    0.3327    0.0000 C   0  0  0  0  0  0  0  0  0  0  0  0
    3.1650    0.3327    0.0000 O   0  0  0  0  0  0  0  0  0  0  0  0
    3.9650   -1.0530    0.0000 H   0  0  0  0  0  0  0  0  0  0  0  0
    2.0487   -0.2954    0.0000 H   0  0  0  0  0  0  0  0  0  0  0  0
    1.7322    1.9239    0.0000 C   0  0  0  0  0  0  0  0  0  0  0  0
    3.2974    1.5912    0.0000 H   0  0  0  0  0  0  0  0  0  0  0  0
    2.2268    3.4455    0.0000 H   0  0  0  0  0  0  0  0  0  0  0  0
    0.2705    2.5747    0.0000 C   0  0  0  0  0  0  0  0  0  0  0  0
    1.0706    3.9603    0.0000 H   0  0  0  0  0  0  0  0  0  0  0  0
   -0.3803    4.0363    0.0000 H   0  0  0  0  0  0  0  0  0  0  0  0
   -0.8001    1.3857    0.0000 C   0  0  0  0  0  0  0  0  0  0  0  0
   -0.6328    2.9768    0.0000 H   0  0  0  0  0  0  0  0  0  0  0  0
   -2.3999    1.3857    0.0000 C   0  0  0  0  0  0  0  0  0  0  0  0
   -1.5999    2.7713    0.0000 H   0  0  0  0  0  0  0  0  0  0  0  0
   -3.2000   -0.0000    0.0000 C   0  0  0  0  0  0  0  0  0  0  0  0
   -4.8001   -0.0000    0.0000 C   0  0  0  0  0  0  0  0  0  0  0  0
   -5.6002   -1.3856    0.0000 C   0  0  0  0  0  0  0  0  0  0  0  0
   -4.8001   -2.7713    0.0000 H   0  0  0  0  0  0  0  0  0  0  0  0
   -7.2000   -1.3856    0.0000 C   0  0  0  0  0  0  0  0  0  0  0  0
   -8.0000   -2.7713    0.0000 H   0  0  0  0  0  0  0  0  0  0  0  0
   -8.0000   -0.0000    0.0000 C   0  0  0  0  0  0  0  0  0  0  0  0
   -9.6001   -0.0000    0.0000 O   0  0  0  0  0  0  0  0  0  0  0  0
  -10.3999   -1.3856    0.0000 C   0  0  0  0  0  0  0  0  0  0  0  0
  -12.0000   -1.3856    0.0000 C   0  0  0  0  0  0  0  0  0  0  0  0
  -12.8000   -0.0000    0.0000 C   0  0  0  0  0  0  0  0  0  0  0  0
  -12.0000    1.3857    0.0000 H   0  0  0  0  0  0  0  0  0  0  0  0
  -14.4001   -0.0000    0.0000 C   0  0  0  0  0  0  0  0  0  0  0  0
  -15.1999    1.3857    0.0000 H   0  0  0  0  0  0  0  0  0  0  0  0
  -15.1999   -1.3856    0.0000 C   0  0  0  0  0  0  0  0  0  0  0  0
  -16.8000   -1.3856    0.0000 H   0  0  0  0  0  0  0  0  0  0  0  0
  -14.4001   -2.7713    0.0000 C   0  0  0  0  0  0  0  0  0  0  0  0
  -15.1999   -4.1569    0.0000 H   0  0  0  0  0  0  0  0  0  0  0  0
  -12.8000   -2.7713    0.0000 C   0  0  0  0  0  0  0  0  0  0  0  0
  -12.0000   -4.1569    0.0000 H   0  0  0  0  0  0  0  0  0  0  0  0
   -9.6001   -2.7713    0.0000 O   0  0  0  0  0  0  0  0  0  0  0  0
   -7.2000    1.3857    0.0000 C   0  0  0  0  0  0  0  0  0  0  0  0
   -8.0000    2.7713    0.0000 H   0  0  0  0  0  0  0  0  0  0  0  0
   -5.6002    1.3857    0.0000 C   0  0  0  0  0  0  0  0  0  0  0  0
   -4.8001    2.7713    0.0000 C   0  0  0  0  0  0  0  0  0  0  0  0
   -3.2000    2.7713    0.0000 C   0  0  0  0  0  0  0  0  0  0  0  0
   -1.9744    3.7998    0.0000 H   0  0  0  0  0  0  0  0  0  0  0  0
   -3.4779    4.3470    0.0000 H   0  0  0  0  0  0  0  0  0  0  0  0
   -4.5222    4.3470    0.0000 H   0  0  0  0  0  0  0  0  0  0  0  0
   -6.3036    3.3185    0.0000 H   0  0  0  0  0  0  0  0  0  0  0  0
   -4.0000   -1.3856    0.0000 H   0  0  0  0  0  0  0  0  0  0  0  0
   -2.3999   -1.3856    0.0000 C   0  0  0  0  0  0  0  0  0  0  0  0
   -3.6255   -2.4141    0.0000 H   0  0  0  0  0  0  0  0  0  0  0  0
   -2.1220   -2.9613    0.0000 H   0  0  0  0  0  0  0  0  0  0  0  0
   -0.8001   -1.3856    0.0000 C   0  0  0  0  0  0  0  0  0  0  0  0
   -1.0777   -2.9613    0.0000 H   0  0  0  0  0  0  0  0  0  0  0  0
    0.5858   -2.1856    0.0000 H   0  0  0  0  0  0  0  0  0  0  0  0
  1  2  1  0  0  0  0
  2  3  1  0  0  0  0
  2  4  1  0  0  0  0
  2  5  1  0  0  0  0
  1  6  1  0  0  0  0
  6  7  1  0  0  0  0
  7  8  1  0  0  0  0
  6  9  1  0  0  0  0
  6 10  1  0  0  0  0
 10 11  1  0  0  0  0
 10 12  1  0  0  0  0
 10 13  1  0  0  0  0
 13 14  1  0  0  0  0
 13 15  1  0  0  0  0
 13 16  1  0  0  0  0
 16  1  1  0  0  0  0
 16 17  1  0  0  0  0
 16 18  1  0  0  0  0
 18 19  1  0  0  0  0
 18 20  1  0  0  0  0
 20 21  1  0  0  0  0
 21 22  4  0  0  0  0
 22 23  1  0  0  0  0
 22 24  4  0  0  0  0
 24 25  1  0  0  0  0
 24 26  4  0  0  0  0
 26 27  1  0  0  0  0
 27 28  1  0  0  0  0
 28 29  1  0  0  0  0
 29 30  4  0  0  0  0
 30 31  1  0  0  0  0
 30 32  4  0  0  0  0
 32 33  1  0  0  0  0
 32 34  4  0  0  0  0
 34 35  1  0  0  0  0
 34 36  4  0  0  0  0
 36 37  1  0  0  0  0
 36 38  4  0  0  0  0
 38 29  4  0  0  0  0
 38 39  1  0  0  0  0
 28 40  2  0  0  0  0
 26 41  4  0  0  0  0
 41 42  1  0  0  0  0
 41 43  4  0  0  0  0
 43 21  4  0  0  0  0
 43 44  1  0  0  0  0
 44 45  1  0  0  0  0
 45 18  1  0  0  0  0
 45 46  1  0  0  0  0
 45 47  1  0  0  0  0
 44 48  1  0  0  0  0
 44 49  1  0  0  0  0
 20 50  1  0  0  0  0
 20 51  1  0  0  0  0
 51 52  1  0  0  0  0
 51 53  1  0  0  0  0
 51 54  1  0  0  0  0
 54  1  1  0  0  0  0
 54 55  1  0  0  0  0
 54 56  1  0  0  0  0
M  END
> <ChemID>
100033.0

> <CAS>
50-50-0

> <CAS_checksum>
ValidCAS

> <NAME>
Estradiol benzoate

> <name_error>
Warning: Structure is taken from ACD/Dictionary

> <preferred_name>
Estradiol benzoate

> <iupac>
(17beta)-17-hydroxyestra-1(10),2,4-trien-3-yl benzoate

> <SMILES>
C[C@]12CC[C@H]3[C@@H](CCc4cc(ccc43)OC(=O)c3ccccc3)[C@@H]1CC[C@@H]2O

> <STAR_flag>
3 STAR Enhanced Stereochemistry

> <New STAR flag>
4 STAR: Smiles generated

> <Canonical_QSARr>
CC12CCC3C(CCc4cc(ccc43)OC(=O)c3ccccc3)C1CCC2O

> <InChI_Code_QSARr>
InChI=1S/C25H28O3/c1-25-14-13-20-19-10-8-18(28-24(27)16-5-3-2-4-6-16)15-17(19)7-9-21(20)22(25)11-12-23(25)26/h2-6,8,10,15,20-23,26H,7,9,11-14H2,1H3

> <InChI Key_QSARr>
UYIFTLBWAOGQBI-UHFFFAOYSA-N

> <Salt_Solvent>
?

> <Salt_Solvent_ID>


> <MP>
196.0

> <EstMP>
202.8

> <ErrorMP>
6.8

> <gsid>
22998

> <dsstox_substance_id>
DTXSID9022998

> <qc_level>
DSSTox_Low

> <dsstox_compound_id>
DTXCID902998

> <Tr_1_Tst_0>
1

$$$$
100034.0
  -INDIGO-01081610012D

 51 54  0  0  0  0  0  0  0  0999 V2000
   -2.6114    6.6285    0.0000 C   0  0  0  0  0  0  0  0  0  0  0  0
   -2.6114    5.0285    0.0000 C   0  0  0  0  0  0  0  0  0  0  0  0
   -1.2256    4.2285    0.0000 H   0  0  0  0  0  0  0  0  0  0  0  0
   -3.9969    4.2285    0.0000 C   0  0  0  0  0  0  0  0  0  0  0  0
   -3.9969    2.6285    0.0000 N   0  0  0  0  0  0  0  0  0  0  0  0
   -5.3827    1.8285    0.0000 C   0  0  0  0  0  0  0  0  0  0  0  0
   -5.3827    0.2285    0.0000 C   0  0  0  0  0  0  0  0  0  0  0  0
   -3.9969   -0.5715    0.0000 H   0  0  0  0  0  0  0  0  0  0  0  0
   -6.7682   -0.5715    0.0000 C   0  0  0  0  0  0  0  0  0  0  0  0
   -6.7682   -2.1715    0.0000 S   0  0  0  0  0  0  0  0  0  0  0  0
   -8.1540   -2.9715    0.0000 C   0  0  0  0  0  0  0  0  0  0  0  0
   -8.1540   -4.5715    0.0000 H   0  0  0  0  0  0  0  0  0  0  0  0
   -9.5395   -3.7715    0.0000 H   0  0  0  0  0  0  0  0  0  0  0  0
   -6.7682   -3.7715    0.0000 H   0  0  0  0  0  0  0  0  0  0  0  0
   -8.1540    0.2285    0.0000 C   0  0  0  0  0  0  0  0  0  0  0  0
   -9.5395   -0.5715    0.0000 H   0  0  0  0  0  0  0  0  0  0  0  0
   -8.1540    1.8285    0.0000 C   0  0  0  0  0  0  0  0  0  0  0  0
   -9.5395    2.6285    0.0000 H   0  0  0  0  0  0  0  0  0  0  0  0
   -6.7682    2.6285    0.0000 C   0  0  0  0  0  0  0  0  0  0  0  0
   -6.7682    4.2285    0.0000 S   0  0  0  0  0  0  0  0  0  0  0  0
   -5.3827    5.0285    0.0000 C   0  0  0  0  0  0  0  0  0  0  0  0
   -5.3827    6.6285    0.0000 C   0  0  0  0  0  0  0  0  0  0  0  0
   -6.7682    7.4285    0.0000 H   0  0  0  0  0  0  0  0  0  0  0  0
   -3.9969    7.4285    0.0000 C   0  0  0  0  0  0  0  0  0  0  0  0
   -3.9969    9.0285    0.0000 H   0  0  0  0  0  0  0  0  0  0  0  0
   -2.6114    1.8285    0.0000 C   0  0  0  0  0  0  0  0  0  0  0  0
   -1.2256    1.0285    0.0000 C   0  0  0  0  0  0  0  0  0  0  0  0
   -0.0001   -0.0000    0.0000 C   0  0  0  0  0  0  0  0  0  0  0  0
    0.8001   -1.3857    0.0000 N   0  0  0  0  0  0  0  0  0  0  0  0
   -0.0001   -2.7713    0.0000 C   0  0  0  0  0  0  0  0  0  0  0  0
   -0.8001   -4.1569    0.0000 H   0  0  0  0  0  0  0  0  0  0  0  0
    0.8001   -4.1569    0.0000 H   0  0  0  0  0  0  0  0  0  0  0  0
   -1.6000   -2.7713    0.0000 H   0  0  0  0  0  0  0  0  0  0  0  0
    2.4000   -1.3857    0.0000 C   0  0  0  0  0  0  0  0  0  0  0  0
    2.1221   -2.9614    0.0000 H   0  0  0  0  0  0  0  0  0  0  0  0
    3.9036   -1.9329    0.0000 H   0  0  0  0  0  0  0  0  0  0  0  0
    3.1999   -0.0000    0.0000 C   0  0  0  0  0  0  0  0  0  0  0  0
    4.4257   -1.0285    0.0000 H   0  0  0  0  0  0  0  0  0  0  0  0
    4.4257    1.0285    0.0000 H   0  0  0  0  0  0  0  0  0  0  0  0
    2.4000    1.3856    0.0000 C   0  0  0  0  0  0  0  0  0  0  0  0
    3.9036    1.9328    0.0000 H   0  0  0  0  0  0  0  0  0  0  0  0
    2.1221    2.9613    0.0000 H   0  0  0  0  0  0  0  0  0  0  0  0
    0.8001    1.3856    0.0000 C   0  0  0  0  0  0  0  0  0  0  0  0
    1.0777    2.9613    0.0000 H   0  0  0  0  0  0  0  0  0  0  0  0
   -0.7758    1.6635    0.0000 H   0  0  0  0  0  0  0  0  0  0  0  0
   -1.2256   -1.0285    0.0000 H   0  0  0  0  0  0  0  0  0  0  0  0
   -0.4257    2.4141    0.0000 H   0  0  0  0  0  0  0  0  0  0  0  0
   -2.0256   -0.3572    0.0000 H   0  0  0  0  0  0  0  0  0  0  0  0
   -1.8114    3.2141    0.0000 H   0  0  0  0  0  0  0  0  0  0  0  0
   -3.4113    0.4428    0.0000 H   0  0  0  0  0  0  0  0  0  0  0  0
   -1.2256    7.4285    0.0000 H   0  0  0  0  0  0  0  0  0  0  0  0
  1  2  4  0  0  0  0
  2  3  1  0  0  0  0
  2  4  4  0  0  0  0
  4  5  1  0  0  0  0
  5  6  1  0  0  0  0
  6  7  4  0  0  0  0
  7  8  1  0  0  0  0
  7  9  4  0  0  0  0
  9 10  1  0  0  0  0
 10 11  1  0  0  0  0
 11 12  1  0  0  0  0
 11 13  1  0  0  0  0
 11 14  1  0  0  0  0
  9 15  4  0  0  0  0
 15 16  1  0  0  0  0
 15 17  4  0  0  0  0
 17 18  1  0  0  0  0
 17 19  4  0  0  0  0
 19  6  4  0  0  0  0
 19 20  1  0  0  0  0
 20 21  1  0  0  0  0
 21  4  4  0  0  0  0
 21 22  4  0  0  0  0
 22 23  1  0  0  0  0
 22 24  4  0  0  0  0
 24  1  4  0  0  0  0
 24 25  1  0  0  0  0
  5 26  1  0  0  0  0
 26 27  1  0  0  0  0
 27 28  1  0  0  0  0
 28 29  1  0  0  0  0
 29 30  1  0  0  0  0
 30 31  1  0  0  0  0
 30 32  1  0  0  0  0
 30 33  1  0  0  0  0
 29 34  1  0  0  0  0
 34 35  1  0  0  0  0
 34 36  1  0  0  0  0
 34 37  1  0  0  0  0
 37 38  1  0  0  0  0
 37 39  1  0  0  0  0
 37 40  1  0  0  0  0
 40 41  1  0  0  0  0
 40 42  1  0  0  0  0
 40 43  1  0  0  0  0
 43 28  1  0  0  0  0
 43 44  1  0  0  0  0
 43 45  1  0  0  0  0
 28 46  1  0  0  0  0
 27 47  1  0  0  0  0
 27 48  1  0  0  0  0
 26 49  1  0  0  0  0
 26 50  1  0  0  0  0
  1 51  1  0  0  0  0
M  END
> <ChemID>
100034.0

> <CAS>
50-52-2

> <CAS_checksum>
ValidCAS

> <NAME>
THIORIDAZINE

> <name_error>
Warning: Structure is taken from ACD/Dictionary

> <preferred_name>
Thioridazine

> <iupac>
10-[2-(1-methylpiperidin-2-yl)ethyl]-2-(methylsulfanyl)-10H-phenothiazine

> <SMILES>
CN1CCCCC1CCN1c2cc(ccc2Sc2ccccc12)SC

> <STAR_flag>
3 STAR

> <New STAR flag>
4 STAR: Smiles generated

> <Canonical_QSARr>
CN1CCCCC1CCN1c2cc(ccc2Sc2ccccc12)SC

> <InChI_Code_QSARr>
InChI=1S/C21H26N2S2/c1-22-13-6-5-7-16(22)12-14-23-18-8-3-4-9-20(18)25-21-11-10-17(24-2)15-19(21)23/h3-4,8-11,15-16H,5-7,12-14H2,1-2H3

> <InChI Key_QSARr>
KLBQZWRITKRQQV-UHFFFAOYSA-N

> <Salt_Solvent>
?

> <Salt_Solvent_ID>


> <MP>
73.0

> <EstMP>
201.8

> <ErrorMP>
128.8

> <gsid>
23656

> <dsstox_substance_id>
DTXSID6023656

> <qc_level>
DSSTox_Low

> <dsstox_compound_id>
DTXCID403656

> <Tr_1_Tst_0>
0

$$$$
100035.0
  -INDIGO-01081610012D

 84 89  0  0  0  0  0  0  0  0999 V2000
    4.0002    1.3858    0.0000 C   0  0  0  0  0  0  0  0  0  0  0  0
    2.4000    1.3858    0.0000 C   0  0  0  0  0  0  0  0  0  0  0  0
    1.6001   -0.0001    0.0000 C   0  0  0  0  0  0  0  0  0  0  0  0
   -0.0001   -0.0001    0.0000 C   0  0  0  0  0  0  0  0  0  0  0  0
   -0.8000    1.3858    0.0000 C   0  0  0  0  0  0  0  0  0  0  0  0
   -0.0001    2.7714    0.0000 C   0  0  0  0  0  0  0  0  0  0  0  0
    0.2778    4.3470    0.0000 H   0  0  0  0  0  0  0  0  0  0  0  0
   -1.2256    3.7998    0.0000 H   0  0  0  0  0  0  0  0  0  0  0  0
    1.6001    2.7714    0.0000 N   0  0  0  0  0  0  0  0  0  0  0  0
    2.4000    4.1569    0.0000 C   0  0  0  0  0  0  0  0  0  0  0  0
    2.6779    5.7326    0.0000 H   0  0  0  0  0  0  0  0  0  0  0  0
    1.3714    5.3826    0.0000 H   0  0  0  0  0  0  0  0  0  0  0  0
    4.0002    4.1569    0.0000 C   0  0  0  0  0  0  0  0  0  0  0  0
    5.5036    4.7041    0.0000 H   0  0  0  0  0  0  0  0  0  0  0  0
    3.7223    5.7326    0.0000 H   0  0  0  0  0  0  0  0  0  0  0  0
    4.8001    2.7714    0.0000 C   0  0  0  0  0  0  0  0  0  0  0  0
    6.3652    2.4387    0.0000 C   0  0  0  0  0  0  0  0  0  0  0  0
    7.6595    3.3792    0.0000 C   0  0  0  0  0  0  0  0  0  0  0  0
    9.1212    2.7282    0.0000 C   0  0  0  0  0  0  0  0  0  0  0  0
    9.2885    1.1370    0.0000 C   0  0  0  0  0  0  0  0  0  0  0  0
   10.7502    0.4863    0.0000 O   0  0  0  0  0  0  0  0  0  0  0  0
   12.0445    1.4268    0.0000 C   0  0  0  0  0  0  0  0  0  0  0  0
   13.5062    0.7761    0.0000 H   0  0  0  0  0  0  0  0  0  0  0  0
   13.3388    2.3673    0.0000 H   0  0  0  0  0  0  0  0  0  0  0  0
   12.2118   -0.1644    0.0000 H   0  0  0  0  0  0  0  0  0  0  0  0
    7.9938    0.1967    0.0000 C   0  0  0  0  0  0  0  0  0  0  0  0
    8.1611   -1.3945    0.0000 H   0  0  0  0  0  0  0  0  0  0  0  0
    6.5321    0.8474    0.0000 C   0  0  0  0  0  0  0  0  0  0  0  0
    5.0704    0.1967    0.0000 N   0  0  0  1  0  0  0  0  0  0  0  0
    4.7379   -1.3684    0.0000 H   0  0  0  0  0  0  0  0  0  0  0  0
   10.4155    3.6687    0.0000 H   0  0  0  0  0  0  0  0  0  0  0  0
    7.4922    4.9704    0.0000 H   0  0  0  0  0  0  0  0  0  0  0  0
   -1.5999    2.7714    0.0000 H   0  0  0  0  0  0  0  0  0  0  0  0
   -2.4002    1.3858    0.0000 C   0  0  0  0  0  0  0  0  0  0  0  0
   -2.6776    2.9614    0.0000 H   0  0  0  0  0  0  0  0  0  0  0  0
   -3.9035    1.9330    0.0000 H   0  0  0  0  0  0  0  0  0  0  0  0
   -3.2000   -0.0001    0.0000 C   0  0  0  0  0  0  0  0  0  0  0  0
   -4.4255    1.0286    0.0000 O   0  0  0  0  0  0  0  0  0  0  0  0
   -5.9293    0.4811    0.0000 C   0  0  0  0  0  0  0  0  0  0  0  0
   -6.2072   -1.0945    0.0000 O   0  0  0  0  0  0  0  0  0  0  0  0
   -7.1548    1.5098    0.0000 C   0  0  0  0  0  0  0  0  0  0  0  0
   -6.8769    3.0854    0.0000 C   0  0  0  0  0  0  0  0  0  0  0  0
   -5.3735    3.6326    0.0000 H   0  0  0  0  0  0  0  0  0  0  0  0
   -8.1028    4.1138    0.0000 C   0  0  0  0  0  0  0  0  0  0  0  0
   -7.8249    5.6894    0.0000 O   0  0  0  0  0  0  0  0  0  0  0  0
   -9.0504    6.7181    0.0000 C   0  0  0  0  0  0  0  0  0  0  0  0
   -8.7725    8.2937    0.0000 H   0  0  0  0  0  0  0  0  0  0  0  0
  -10.2763    7.7465    0.0000 H   0  0  0  0  0  0  0  0  0  0  0  0
   -7.5470    7.2653    0.0000 H   0  0  0  0  0  0  0  0  0  0  0  0
   -9.6062    3.5666    0.0000 C   0  0  0  0  0  0  0  0  0  0  0  0
  -10.8317    4.5950    0.0000 O   0  0  0  0  0  0  0  0  0  0  0  0
  -12.3355    4.0478    0.0000 C   0  0  0  0  0  0  0  0  0  0  0  0
  -13.5610    5.0762    0.0000 H   0  0  0  0  0  0  0  0  0  0  0  0
  -13.8389    3.5006    0.0000 H   0  0  0  0  0  0  0  0  0  0  0  0
  -12.0576    5.6234    0.0000 H   0  0  0  0  0  0  0  0  0  0  0  0
   -9.8841    1.9910    0.0000 C   0  0  0  0  0  0  0  0  0  0  0  0
  -11.3875    1.4436    0.0000 O   0  0  0  0  0  0  0  0  0  0  0  0
  -11.6654   -0.1320    0.0000 C   0  0  0  0  0  0  0  0  0  0  0  0
  -13.1688   -0.6792    0.0000 H   0  0  0  0  0  0  0  0  0  0  0  0
  -11.9433   -1.7076    0.0000 H   0  0  0  0  0  0  0  0  0  0  0  0
  -12.8909    0.8964    0.0000 H   0  0  0  0  0  0  0  0  0  0  0  0
   -8.6582    0.9624    0.0000 C   0  0  0  0  0  0  0  0  0  0  0  0
   -8.9361   -0.6133    0.0000 H   0  0  0  0  0  0  0  0  0  0  0  0
   -4.4255   -1.0285    0.0000 H   0  0  0  0  0  0  0  0  0  0  0  0
   -2.4002   -1.3857    0.0000 C   0  0  0  0  0  0  0  0  0  0  0  0
   -3.9035   -1.9329    0.0000 O   0  0  0  0  0  0  0  0  0  0  0  0
   -4.1814   -3.5085    0.0000 C   0  0  0  0  0  0  0  0  0  0  0  0
   -4.4593   -5.0843    0.0000 H   0  0  0  0  0  0  0  0  0  0  0  0
   -5.6848   -4.0559    0.0000 H   0  0  0  0  0  0  0  0  0  0  0  0
   -5.4069   -2.4801    0.0000 H   0  0  0  0  0  0  0  0  0  0  0  0
   -2.1223   -2.9613    0.0000 H   0  0  0  0  0  0  0  0  0  0  0  0
   -0.8000   -1.3857    0.0000 C   0  0  0  0  0  0  0  0  0  0  0  0
   -0.8000   -2.9855    0.0000 C   0  0  0  0  0  0  0  0  0  0  0  0
    0.5857   -3.7857    0.0000 O   0  0  0  0  0  0  0  0  0  0  0  0
    0.5857   -5.3855    0.0000 C   0  0  0  0  0  0  0  0  0  0  0  0
    0.5857   -6.9856    0.0000 H   0  0  0  0  0  0  0  0  0  0  0  0
    1.9715   -6.1857    0.0000 H   0  0  0  0  0  0  0  0  0  0  0  0
   -0.8000   -6.1857    0.0000 H   0  0  0  0  0  0  0  0  0  0  0  0
   -2.0259   -4.0142    0.0000 O   0  0  0  0  0  0  0  0  0  0  0  0
    0.4255   -2.4141    0.0000 H   0  0  0  0  0  0  0  0  0  0  0  0
    0.7998   -1.3857    0.0000 H   0  0  0  0  0  0  0  0  0  0  0  0
    1.8780   -1.5757    0.0000 H   0  0  0  0  0  0  0  0  0  0  0  0
    2.9858   -0.8000    0.0000 H   0  0  0  0  0  0  0  0  0  0  0  0
    3.4285    0.1599    0.0000 H   0  0  0  0  0  0  0  0  0  0  0  0
  1  2  1  0  0  0  0
  2  3  1  0  0  0  0
  3  4  1  0  0  0  0
  4  5  1  0  0  0  0
  5  6  1  0  0  0  0
  6  7  1  0  0  0  0
  6  8  1  0  0  0  0
  6  9  1  0  0  0  0
  9  2  1  0  0  0  0
  9 10  1  0  0  0  0
 10 11  1  0  0  0  0
 10 12  1  0  0  0  0
 10 13  1  0  0  0  0
 13 14  1  0  0  0  0
 13 15  1  0  0  0  0
 13 16  1  0  0  0  0
 16  1  4  0  0  0  0
 16 17  4  0  0  0  0
 17 18  4  0  0  0  0
 18 19  4  0  0  0  0
 19 20  4  0  0  0  0
 20 21  1  0  0  0  0
 21 22  1  0  0  0  0
 22 23  1  0  0  0  0
 22 24  1  0  0  0  0
 22 25  1  0  0  0  0
 20 26  4  0  0  0  0
 26 27  1  0  0  0  0
 26 28  4  0  0  0  0
 28 17  4  0  0  0  0
 28 29  4  0  0  0  0
 29  1  4  0  0  0  0
 29 30  1  0  0  0  0
 19 31  1  0  0  0  0
 18 32  1  0  0  0  0
  5 33  1  0  0  0  0
  5 34  1  0  0  0  0
 34 35  1  0  0  0  0
 34 36  1  0  0  0  0
 34 37  1  0  0  0  0
 37 38  1  0  0  0  0
 38 39  1  0  0  0  0
 39 40  2  0  0  0  0
 39 41  1  0  0  0  0
 41 42  4  0  0  0  0
 42 43  1  0  0  0  0
 42 44  4  0  0  0  0
 44 45  1  0  0  0  0
 45 46  1  0  0  0  0
 46 47  1  0  0  0  0
 46 48  1  0  0  0  0
 46 49  1  0  0  0  0
 44 50  4  0  0  0  0
 50 51  1  0  0  0  0
 51 52  1  0  0  0  0
 52 53  1  0  0  0  0
 52 54  1  0  0  0  0
 52 55  1  0  0  0  0
 50 56  4  0  0  0  0
 56 57  1  0  0  0  0
 57 58  1  0  0  0  0
 58 59  1  0  0  0  0
 58 60  1  0  0  0  0
 58 61  1  0  0  0  0
 56 62  4  0  0  0  0
 62 41  4  0  0  0  0
 62 63  1  0  0  0  0
 37 64  1  0  0  0  0
 37 65  1  0  0  0  0
 65 66  1  0  0  0  0
 66 67  1  0  0  0  0
 67 68  1  0  0  0  0
 67 69  1  0  0  0  0
 67 70  1  0  0  0  0
 65 71  1  0  0  0  0
 65 72  1  0  0  0  0
 72  4  1  0  0  0  0
 72 73  1  0  0  0  0
 73 74  1  0  0  0  0
 74 75  1  0  0  0  0
 75 76  1  0  0  0  0
 75 77  1  0  0  0  0
 75 78  1  0  0  0  0
 73 79  2  0  0  0  0
 72 80  1  0  0  0  0
  4 81  1  0  0  0  0
  3 82  1  0  0  0  0
  3 83  1  0  0  0  0
  2 84  1  0  0  0  0
M  END
> <ChemID>
100035.0

> <CAS>
50-55-5

> <CAS_checksum>
ValidCAS

> <NAME>
RESERPINE

> <name_error>
Warning: Structure is taken from ACD/Dictionary

> <preferred_name>
Reserpine

> <iupac>
methyl (3beta,16beta,17alpha,18beta,20alpha)-11,17-dimethoxy-18-[(3,4,5-trimethoxybenzoyl)oxy]yohimban-16-carboxylate

> <SMILES>
COC(=O)[C@@H]1[C@@H](OC)[C@@H](C[C@@H]2CN3CCc4c([nH]c5cc(ccc45)OC)[C@H]3C[C@@H]21)OC(=O)c1cc(OC)c(OC)c(c1)OC

> <STAR_flag>
3 STAR Enhanced Stereochemistry

> <New STAR flag>
4 STAR: Smiles generated

> <Canonical_QSARr>
COC(=O)C1C(OC)C(CC2CN3CCc4c([nH]c5cc(ccc45)OC)C3CC21)OC(=O)c1cc(OC)c(OC)c(c1)OC

> <InChI_Code_QSARr>
InChI=1S/C33H40N2O9/c1-38-19-7-8-20-21-9-10-35-16-18-13-27(44-32(36)17-11-25(39-2)30(41-4)26(12-17)40-3)31(42-5)28(33(37)43-6)22(18)15-24(35)29(21)34-23(20)14-19/h7-8,11-12,14,18,22,24,27-28,31,34H,9-10,13,15-16H2,1-6H3

> <InChI Key_QSARr>
QEVHRUUCFGRFIF-UHFFFAOYSA-N

> <Salt_Solvent>
?

> <Salt_Solvent_ID>


> <MP>
264.5

> <EstMP>
297.76

> <ErrorMP>
33.26

> <gsid>
21237

> <dsstox_substance_id>
DTXSID7021237

> <qc_level>
DSSTox_Low

> <dsstox_compound_id>
DTXCID201237

> <Tr_1_Tst_0>
1

$$$$
100036.0
  -INDIGO-01081610012D

 40 42  0  0  0  0  0  0  0  0999 V2000
    2.7714    3.2000    0.0000 C   0  0  0  0  0  0  0  0  0  0  0  0
    1.3856    2.4000    0.0000 C   0  0  0  0  0  0  0  0  0  0  0  0
    0.0001    3.2000    0.0000 H   0  0  0  0  0  0  0  0  0  0  0  0
    1.3856    0.8000    0.0000 C   0  0  0  0  0  0  0  0  0  0  0  0
    0.0001    0.0000    0.0000 N   0  0  0  0  0  0  0  0  0  0  0  0
   -0.5473   -1.5035    0.0000 C   0  0  0  0  0  0  0  0  0  0  0  0
   -2.1229   -1.7813    0.0000 C   0  0  0  0  0  0  0  0  0  0  0  0
   -3.1514   -0.5557    0.0000 H   0  0  0  0  0  0  0  0  0  0  0  0
   -2.6701   -3.2848    0.0000 C   0  0  0  0  0  0  0  0  0  0  0  0
   -4.2459   -3.5627    0.0000 H   0  0  0  0  0  0  0  0  0  0  0  0
   -1.6418   -4.5105    0.0000 C   0  0  0  0  0  0  0  0  0  0  0  0
   -2.1889   -6.0141    0.0000 H   0  0  0  0  0  0  0  0  0  0  0  0
   -0.0660   -4.2328    0.0000 C   0  0  0  0  0  0  0  0  0  0  0  0
    0.9625   -5.4583    0.0000 O   0  0  0  0  0  0  0  0  0  0  0  0
    0.4152   -6.9619    0.0000 H   0  0  0  0  0  0  0  0  0  0  0  0
    0.4812   -2.7293    0.0000 C   0  0  0  0  0  0  0  0  0  0  0  0
    2.0568   -2.4513    0.0000 H   0  0  0  0  0  0  0  0  0  0  0  0
   -1.3857    0.8000    0.0000 C   0  0  0  0  0  0  0  0  0  0  0  0
   -2.7712    1.5999    0.0000 C   0  0  0  0  0  0  0  0  0  0  0  0
   -2.9386    3.1912    0.0000 N   0  0  0  0  0  0  0  0  0  0  0  0
   -1.7495    4.2618    0.0000 H   0  0  0  0  0  0  0  0  0  0  0  0
   -4.5035    3.5239    0.0000 C   0  0  0  0  0  0  0  0  0  0  0  0
   -4.0092    5.0456    0.0000 H   0  0  0  0  0  0  0  0  0  0  0  0
   -5.9652    4.1747    0.0000 H   0  0  0  0  0  0  0  0  0  0  0  0
   -5.3035    2.1382    0.0000 C   0  0  0  0  0  0  0  0  0  0  0  0
   -6.5980    3.0787    0.0000 H   0  0  0  0  0  0  0  0  0  0  0  0
   -6.3743    0.9493    0.0000 H   0  0  0  0  0  0  0  0  0  0  0  0
   -4.2329    0.9493    0.0000 N   0  0  0  0  0  0  0  0  0  0  0  0
   -2.1856   -0.5856    0.0000 H   0  0  0  0  0  0  0  0  0  0  0  0
   -0.5857    2.1857    0.0000 H   0  0  0  0  0  0  0  0  0  0  0  0
    2.7714    0.0000    0.0000 C   0  0  0  0  0  0  0  0  0  0  0  0
    3.0492   -1.5757    0.0000 H   0  0  0  0  0  0  0  0  0  0  0  0
    4.1569    0.8000    0.0000 C   0  0  0  0  0  0  0  0  0  0  0  0
    5.5427    0.0000    0.0000 H   0  0  0  0  0  0  0  0  0  0  0  0
    4.1569    2.4000    0.0000 C   0  0  0  0  0  0  0  0  0  0  0  0
    5.5427    3.2000    0.0000 C   0  0  0  0  0  0  0  0  0  0  0  0
    6.9282    3.9999    0.0000 H   0  0  0  0  0  0  0  0  0  0  0  0
    6.9282    2.4000    0.0000 H   0  0  0  0  0  0  0  0  0  0  0  0
    5.5427    4.8001    0.0000 H   0  0  0  0  0  0  0  0  0  0  0  0
    2.7714    4.8001    0.0000 H   0  0  0  0  0  0  0  0  0  0  0  0
  1  2  4  0  0  0  0
  2  3  1  0  0  0  0
  2  4  4  0  0  0  0
  4  5  1  0  0  0  0
  5  6  1  0  0  0  0
  6  7  4  0  0  0  0
  7  8  1  0  0  0  0
  7  9  4  0  0  0  0
  9 10  1  0  0  0  0
  9 11  4  0  0  0  0
 11 12  1  0  0  0  0
 11 13  4  0  0  0  0
 13 14  1  0  0  0  0
 14 15  1  0  0  0  0
 13 16  4  0  0  0  0
 16  6  4  0  0  0  0
 16 17  1  0  0  0  0
  5 18  1  0  0  0  0
 18 19  1  0  0  0  0
 19 20  1  0  0  0  0
 20 21  1  0  0  0  0
 20 22  1  0  0  0  0
 22 23  1  0  0  0  0
 22 24  1  0  0  0  0
 22 25  1  0  0  0  0
 25 26  1  0  0  0  0
 25 27  1  0  0  0  0
 25 28  1  0  0  0  0
 28 19  2  0  0  0  0
 18 29  1  0  0  0  0
 18 30  1  0  0  0  0
  4 31  4  0  0  0  0
 31 32  1  0  0  0  0
 31 33  4  0  0  0  0
 33 34  1  0  0  0  0
 33 35  4  0  0  0  0
 35  1  4  0  0  0  0
 35 36  1  0  0  0  0
 36 37  1  0  0  0  0
 36 38  1  0  0  0  0
 36 39  1  0  0  0  0
  1 40  1  0  0  0  0
M  END
> <ChemID>
100036.0

> <CAS>
50-60-2

> <CAS_checksum>
ValidCAS

> <NAME>
Phentolamine

> <name_error>
Warning: Structure is taken from ACD/Dictionary

> <preferred_name>
Phentolamine

> <iupac>
3-[(4,5-dihydro-1H-imidazol-2-ylmethyl)(4-methylphenyl)amino]phenol

> <SMILES>
Cc1ccc(cc1)N(CC1NCCN=1)c1cc(O)ccc1

> <STAR_flag>
3 STAR

> <New STAR flag>
4 STAR: Smiles generated

> <Canonical_QSARr>
Cc1ccc(cc1)N(CC1NCCN=1)c1cc(O)ccc1

> <InChI_Code_QSARr>
InChI=1S/C17H19N3O/c1-13-5-7-14(8-6-13)20(12-17-18-9-10-19-17)15-3-2-4-16(21)11-15/h2-8,11,21H,9-10,12H2,1H3,(H,18,19)

> <InChI Key_QSARr>
MRBDMNSDAVCSSF-UHFFFAOYSA-N

> <Salt_Solvent>
?

> <Salt_Solvent_ID>


> <MP>
174.5

> <EstMP>
212.67

> <ErrorMP>
38.17

> <gsid>
23462

> <dsstox_substance_id>
DTXSID4023462

> <qc_level>
DSSTox_Low

> <dsstox_compound_id>
DTXCID703462

> <Tr_1_Tst_0>
1

$$$$
100038.0
  -INDIGO-01081610012D

 29 30  0  0  0  0  0  0  0  0999 V2000
   -2.3999   -1.3856    0.0000 O   0  0  0  0  0  0  0  0  0  0  0  0
   -1.6001    0.0000    0.0000 C   0  0  0  0  0  0  0  0  0  0  0  0
   -2.3999    1.3856    0.0000 N   0  0  0  0  0  0  0  0  0  0  0  0
   -4.0000    1.3856    0.0000 C   0  0  0  0  0  0  0  0  0  0  0  0
   -4.8000    2.7713    0.0000 C   0  0  0  0  0  0  0  0  0  0  0  0
   -4.0000    4.1569    0.0000 Cl  0  0  0  0  0  0  0  0  0  0  0  0
   -6.4001    2.7713    0.0000 C   0  0  0  0  0  0  0  0  0  0  0  0
   -7.2001    4.1569    0.0000 H   0  0  0  0  0  0  0  0  0  0  0  0
   -7.1999    1.3856    0.0000 C   0  0  0  0  0  0  0  0  0  0  0  0
   -8.8000    1.3856    0.0000 N   0  0  0  0  0  0  0  0  0  0  0  0
   -9.6000    2.7713    0.0000 O   0  0  0  0  0  0  0  0  0  0  0  0
   -9.6000    0.0000    0.0000 O   0  0  0  0  0  0  0  0  0  0  0  0
   -6.4001    0.0000    0.0000 C   0  0  0  0  0  0  0  0  0  0  0  0
   -7.1999   -1.3856    0.0000 H   0  0  0  0  0  0  0  0  0  0  0  0
   -4.8000    0.0000    0.0000 C   0  0  0  0  0  0  0  0  0  0  0  0
   -4.0000   -1.3856    0.0000 H   0  0  0  0  0  0  0  0  0  0  0  0
   -1.6001    2.7713    0.0000 H   0  0  0  0  0  0  0  0  0  0  0  0
    0.0000    0.0000    0.0000 C   0  0  0  0  0  0  0  0  0  0  0  0
    0.8000   -1.3856    0.0000 C   0  0  0  0  0  0  0  0  0  0  0  0
    0.0000   -2.7713    0.0000 H   0  0  0  0  0  0  0  0  0  0  0  0
    2.4001   -1.3856    0.0000 C   0  0  0  0  0  0  0  0  0  0  0  0
    3.1999   -2.7713    0.0000 Cl  0  0  0  0  0  0  0  0  0  0  0  0
    3.1999    0.0000    0.0000 C   0  0  0  0  0  0  0  0  0  0  0  0
    4.8000    0.0000    0.0000 H   0  0  0  0  0  0  0  0  0  0  0  0
    2.4001    1.3856    0.0000 C   0  0  0  0  0  0  0  0  0  0  0  0
    3.1999    2.7713    0.0000 H   0  0  0  0  0  0  0  0  0  0  0  0
    0.8000    1.3856    0.0000 C   0  0  0  0  0  0  0  0  0  0  0  0
    0.0000    2.7713    0.0000 O   0  0  0  0  0  0  0  0  0  0  0  0
    0.8000    4.1569    0.0000 H   0  0  0  0  0  0  0  0  0  0  0  0
  1  2  2  0  0  0  0
  2  3  1  0  0  0  0
  3  4  1  0  0  0  0
  4  5  4  0  0  0  0
  5  6  1  0  0  0  0
  5  7  4  0  0  0  0
  7  8  1  0  0  0  0
  7  9  4  0  0  0  0
  9 10  1  0  0  0  0
 10 11  1  0  0  0  0
 10 12  2  0  0  0  0
  9 13  4  0  0  0  0
 13 14  1  0  0  0  0
 13 15  4  0  0  0  0
 15  4  4  0  0  0  0
 15 16  1  0  0  0  0
  3 17  1  0  0  0  0
  2 18  1  0  0  0  0
 18 19  4  0  0  0  0
 19 20  1  0  0  0  0
 19 21  4  0  0  0  0
 21 22  1  0  0  0  0
 21 23  4  0  0  0  0
 23 24  1  0  0  0  0
 23 25  4  0  0  0  0
 25 26  1  0  0  0  0
 25 27  4  0  0  0  0
 27 18  4  0  0  0  0
 27 28  1  0  0  0  0
 28 29  1  0  0  0  0
M  CHG  2  10   1  11  -1
M  END
> <ChemID>
100038.0

> <CAS>
50-65-7

> <CAS_checksum>
ValidCAS

> <NAME>
NICLOSAMIDE

> <name_error>
Warning: Structure is taken from ACD/Dictionary

> <preferred_name>
Niclosamide

> <iupac>
5-chloro-N-(2-chloro-4-nitrophenyl)-2-hydroxybenzamide

> <SMILES>
[O-][N+](=O)c1cc(Cl)c(cc1)NC(=O)c1cc(Cl)ccc1O

> <STAR_flag>
3 STAR

> <New STAR flag>
4 STAR: Smiles generated

> <Canonical_QSARr>
[O-][N+](=O)c1cc(Cl)c(cc1)NC(=O)c1cc(Cl)ccc1O

> <InChI_Code_QSARr>
InChI=1S/C13H8Cl2N2O4/c14-7-1-4-12(18)9(5-7)13(19)16-11-3-2-8(17(20)21)6-10(11)15/h1-6,18H,(H,16,19)

> <InChI Key_QSARr>
RJMUSRYZPJIFPJ-UHFFFAOYSA-N

> <Salt_Solvent>
?

> <Salt_Solvent_ID>


> <MP>
230.0

> <EstMP>
215.59

> <ErrorMP>
-14.41

> <gsid>
40362

> <dsstox_substance_id>
DTXSID7040362

> <qc_level>
DSSTox_Low

> <dsstox_compound_id>
DTXCID5020362

> <Tr_1_Tst_0>
1

$$$$
100039.0
  -INDIGO-01081610012D

 25 26  0  0  0  0  0  0  0  0999 V2000
    4.7650    0.3326    0.0000 C   0  0  0  0  0  0  0  0  0  0  0  0
    3.9650    1.7183    0.0000 C   0  0  0  0  0  0  0  0  0  0  0  0
    4.7650    3.1040    0.0000 O   0  0  0  0  0  0  0  0  0  0  0  0
    6.3650    3.1040    0.0000 H   0  0  0  0  0  0  0  0  0  0  0  0
    2.3650    1.7183    0.0000 C   0  0  0  0  0  0  0  0  0  0  0  0
    1.5650    3.1040    0.0000 H   0  0  0  0  0  0  0  0  0  0  0  0
    1.5650    0.3326    0.0000 C   0  0  0  0  0  0  0  0  0  0  0  0
   -0.0001   -0.0001    0.0000 C   0  0  0  0  0  0  0  0  0  0  0  0
   -1.1891    1.0706    0.0000 C   0  0  0  0  0  0  0  0  0  0  0  0
   -2.3780    2.1412    0.0000 C   0  0  0  0  0  0  0  0  0  0  0  0
   -3.5670    3.2119    0.0000 N   0  0  0  0  0  0  0  0  0  0  0  0
   -5.0888    2.7174    0.0000 H   0  0  0  0  0  0  0  0  0  0  0  0
   -3.2344    4.7769    0.0000 H   0  0  0  0  0  0  0  0  0  0  0  0
   -3.4487    0.9522    0.0000 H   0  0  0  0  0  0  0  0  0  0  0  0
   -1.3074    3.3303    0.0000 H   0  0  0  0  0  0  0  0  0  0  0  0
   -2.2597   -0.1185    0.0000 H   0  0  0  0  0  0  0  0  0  0  0  0
   -0.1184    2.2596    0.0000 H   0  0  0  0  0  0  0  0  0  0  0  0
   -0.1673   -1.5912    0.0000 C   0  0  0  0  0  0  0  0  0  0  0  0
    1.2945   -2.2421    0.0000 N   0  0  0  1  0  0  0  0  0  0  0  0
    1.6271   -3.8071    0.0000 H   0  0  0  0  0  0  0  0  0  0  0  0
    2.3650   -1.0530    0.0000 C   0  0  0  0  0  0  0  0  0  0  0  0
    3.9650   -1.0530    0.0000 C   0  0  0  0  0  0  0  0  0  0  0  0
    4.7650   -2.4387    0.0000 H   0  0  0  0  0  0  0  0  0  0  0  0
   -1.5529   -2.3913    0.0000 H   0  0  0  0  0  0  0  0  0  0  0  0
    6.3650    0.3326    0.0000 H   0  0  0  0  0  0  0  0  0  0  0  0
  1  2  4  0  0  0  0
  2  3  1  0  0  0  0
  3  4  1  0  0  0  0
  2  5  4  0  0  0  0
  5  6  1  0  0  0  0
  5  7  4  0  0  0  0
  7  8  4  0  0  0  0
  8  9  1  0  0  0  0
  9 10  1  0  0  0  0
 10 11  1  0  0  0  0
 11 12  1  0  0  0  0
 11 13  1  0  0  0  0
 10 14  1  0  0  0  0
 10 15  1  0  0  0  0
  9 16  1  0  0  0  0
  9 17  1  0  0  0  0
  8 18  4  0  0  0  0
 18 19  4  0  0  0  0
 19 20  1  0  0  0  0
 19 21  4  0  0  0  0
 21  7  4  0  0  0  0
 21 22  4  0  0  0  0
 22  1  4  0  0  0  0
 22 23  1  0  0  0  0
 18 24  1  0  0  0  0
  1 25  1  0  0  0  0
M  END
> <ChemID>
100039.0

> <CAS>
50-67-9

> <CAS_checksum>
ValidCAS

> <NAME>
5-HYDROXYTRYPTAMINE

> <name_error>
Warning: Structure is taken from ACD/Dictionary

> <preferred_name>
Serotonin

> <iupac>
3-(2-Aminoethyl)-1H-indol-5-ol

> <SMILES>
NCCc1c[nH]c2ccc(O)cc21

> <STAR_flag>
3 STAR

> <New STAR flag>
4 STAR: Smiles generated

> <Canonical_QSARr>
NCCc1c[nH]c2ccc(O)cc21

> <InChI_Code_QSARr>
InChI=1S/C10H12N2O/c11-4-3-7-6-12-10-2-1-8(13)5-9(7)10/h1-2,5-6,12-13H,3-4,11H2

> <InChI Key_QSARr>
QZAYGJVTTNCVMB-UHFFFAOYSA-N

> <Salt_Solvent>
?

> <Salt_Solvent_ID>


> <MP>
167.5

> <EstMP>
130.46

> <ErrorMP>
-37.04

> <gsid>
75330

> <dsstox_substance_id>
DTXSID8075330

> <qc_level>
Public_High

> <dsstox_compound_id>
DTXCID4040765

> <Tr_1_Tst_0>
0

$$$$
100042.0
  -INDIGO-01081610012D

 15 15  0  0  0  0  0  0  0  0999 V2000
    3.2001    2.7713    0.0000 Cl  0  0  0  0  0  0  0  0  0  0  0  0
    2.4000    1.3856    0.0000 C   0  0  0  0  0  0  0  0  0  0  0  0
    0.8000    1.3856    0.0000 C   0  0  0  0  0  0  0  0  0  0  0  0
    0.0000    2.7713    0.0000 Cl  0  0  0  0  0  0  0  0  0  0  0  0
    0.0000    0.0000    0.0000 C   0  0  0  0  0  0  0  0  0  0  0  0
   -1.6000    0.0000    0.0000 C   0  0  0  0  0  0  0  0  0  0  0  0
   -2.4001   -1.3856    0.0000 O   0  0  0  0  0  0  0  0  0  0  0  0
   -4.0000   -1.3856    0.0000 H   0  0  0  0  0  0  0  0  0  0  0  0
   -2.4001    1.3856    0.0000 O   0  0  0  0  0  0  0  0  0  0  0  0
    0.8000   -1.3856    0.0000 C   0  0  0  0  0  0  0  0  0  0  0  0
    0.0000   -2.7713    0.0000 H   0  0  0  0  0  0  0  0  0  0  0  0
    2.4000   -1.3856    0.0000 C   0  0  0  0  0  0  0  0  0  0  0  0
    3.2001   -2.7713    0.0000 Cl  0  0  0  0  0  0  0  0  0  0  0  0
    3.2001    0.0000    0.0000 C   0  0  0  0  0  0  0  0  0  0  0  0
    4.8000    0.0000    0.0000 H   0  0  0  0  0  0  0  0  0  0  0  0
  1  2  1  0  0  0  0
  2  3  4  0  0  0  0
  3  4  1  0  0  0  0
  3  5  4  0  0  0  0
  5  6  1  0  0  0  0
  6  7  1  0  0  0  0
  7  8  1  0  0  0  0
  6  9  2  0  0  0  0
  5 10  4  0  0  0  0
 10 11  1  0  0  0  0
 10 12  4  0  0  0  0
 12 13  1  0  0  0  0
 12 14  4  0  0  0  0
 14  2  4  0  0  0  0
 14 15  1  0  0  0  0
M  END
> <ChemID>
100042.0

> <CAS>
50-73-7

> <CAS_checksum>
ValidCAS

> <NAME>
Benzoic acid, 2,3,5-trichloro-

> <name_error>
Ok

> <preferred_name>
2,3,5-Trichlorobenzoic acid

> <iupac>
2,3,5-Trichlorobenzoic acid

> <SMILES>
OC(=O)c1cc(Cl)cc(Cl)c1Cl

> <STAR_flag>
3 STAR

> <New STAR flag>
4 STAR: Smiles generated

> <Canonical_QSARr>
OC(=O)c1cc(Cl)cc(Cl)c1Cl

> <InChI_Code_QSARr>
InChI=1S/C7H3Cl3O2/c8-3-1-4(7(11)12)6(10)5(9)2-3/h1-2H,(H,11,12)

> <InChI Key_QSARr>
CGFDSIZRJWMQPP-UHFFFAOYSA-N

> <Salt_Solvent>
?

> <Salt_Solvent_ID>


> <MP>
166.5

> <EstMP>
108.94

> <ErrorMP>
-57.56

> <gsid>
74285

> <dsstox_substance_id>
DTXSID8074285

> <qc_level>
Public_High

> <dsstox_compound_id>
DTXCID9040766

> <Tr_1_Tst_0>
1

$$$$
100043.0
  -INDIGO-01081610012D

 15 15  0  0  0  0  0  0  0  0999 V2000
    1.6000    0.0000    0.0000 C   0  0  0  0  0  0  0  0  0  0  0  0
    2.4001   -1.3856    0.0000 O   0  0  0  0  0  0  0  0  0  0  0  0
    4.0000   -1.3856    0.0000 H   0  0  0  0  0  0  0  0  0  0  0  0
   -0.0000   -0.0000    0.0000 C   0  0  0  0  0  0  0  0  0  0  0  0
   -0.8000    1.3856    0.0000 C   0  0  0  0  0  0  0  0  0  0  0  0
   -0.0000    2.7713    0.0000 H   0  0  0  0  0  0  0  0  0  0  0  0
   -2.4000    1.3856    0.0000 C   0  0  0  0  0  0  0  0  0  0  0  0
   -3.2001    2.7713    0.0000 Cl  0  0  0  0  0  0  0  0  0  0  0  0
   -3.2001   -0.0000    0.0000 C   0  0  0  0  0  0  0  0  0  0  0  0
   -4.8000   -0.0000    0.0000 Cl  0  0  0  0  0  0  0  0  0  0  0  0
   -2.4000   -1.3856    0.0000 C   0  0  0  0  0  0  0  0  0  0  0  0
   -3.2001   -2.7713    0.0000 Cl  0  0  0  0  0  0  0  0  0  0  0  0
   -0.8000   -1.3856    0.0000 C   0  0  0  0  0  0  0  0  0  0  0  0
   -0.0000   -2.7713    0.0000 Cl  0  0  0  0  0  0  0  0  0  0  0  0
    2.4001    1.3856    0.0000 O   0  0  0  0  0  0  0  0  0  0  0  0
  1  2  1  0  0  0  0
  2  3  1  0  0  0  0
  1  4  1  0  0  0  0
  4  5  4  0  0  0  0
  5  6  1  0  0  0  0
  5  7  4  0  0  0  0
  7  8  1  0  0  0  0
  7  9  4  0  0  0  0
  9 10  1  0  0  0  0
  9 11  4  0  0  0  0
 11 12  1  0  0  0  0
 11 13  4  0  0  0  0
 13  4  4  0  0  0  0
 13 14  1  0  0  0  0
  1 15  2  0  0  0  0
M  END
> <ChemID>
100043.0

> <CAS>
50-74-8

> <CAS_checksum>
ValidCAS

> <NAME>
Benzoic acid, 2,3,4,5-tetrachloro-

> <name_error>
Ok

> <preferred_name>


> <iupac>


> <SMILES>
OC(=O)c1cc(Cl)c(Cl)c(Cl)c1Cl

> <STAR_flag>
2 STAR: Molfile, Name, CAS unverified

> <New STAR flag>
3 STAR: Molfile, Name, Smiles generated

> <Canonical_QSARr>
OC(=O)c1cc(Cl)c(Cl)c(Cl)c1Cl

> <InChI_Code_QSARr>
InChI=1S/C7H2Cl4O2/c8-3-1-2(7(12)13)4(9)6(11)5(3)10/h1H,(H,12,13)

> <InChI Key_QSARr>
FUXMTEKFGUWSNC-UHFFFAOYSA-N

> <Salt_Solvent>
?

> <Salt_Solvent_ID>


> <MP>
194.5

> <EstMP>
120.05

> <ErrorMP>
-74.45

> <gsid>


> <dsstox_substance_id>


> <qc_level>


> <dsstox_compound_id>


> <Tr_1_Tst_0>
1

$$$$
100044.0
  -INDIGO-01081610012D

 21 21  0  0  0  0  0  0  0  0999 V2000
   -2.4000    1.3856    0.0000 O   0  0  0  0  0  0  0  0  0  0  0  0
   -0.8000    1.3856    0.0000 C   0  0  0  0  0  0  0  0  0  0  0  0
   -0.0000   -0.0001    0.0000 C   0  0  0  0  0  0  0  0  0  0  0  0
   -0.8000   -1.3856    0.0000 C   0  0  0  0  0  0  0  0  0  0  0  0
   -2.4000   -1.3856    0.0000 H   0  0  0  0  0  0  0  0  0  0  0  0
   -0.0000   -2.7713    0.0000 C   0  0  0  0  0  0  0  0  0  0  0  0
   -0.8000   -4.1569    0.0000 H   0  0  0  0  0  0  0  0  0  0  0  0
    1.6001   -2.7712    0.0000 C   0  0  0  0  0  0  0  0  0  0  0  0
    2.4000   -4.1569    0.0000 H   0  0  0  0  0  0  0  0  0  0  0  0
    2.4000   -1.3856    0.0000 C   0  0  0  0  0  0  0  0  0  0  0  0
    4.0000   -1.3856    0.0000 H   0  0  0  0  0  0  0  0  0  0  0  0
    1.6001   -0.0001    0.0000 C   0  0  0  0  0  0  0  0  0  0  0  0
    2.4000    1.3856    0.0000 O   0  0  0  0  0  0  0  0  0  0  0  0
    4.0000    1.3856    0.0000 C   0  0  0  0  0  0  0  0  0  0  0  0
    4.8001    2.7713    0.0000 C   0  0  0  0  0  0  0  0  0  0  0  0
    5.6000    4.1569    0.0000 H   0  0  0  0  0  0  0  0  0  0  0  0
    6.4000    2.7713    0.0000 H   0  0  0  0  0  0  0  0  0  0  0  0
    4.0000    4.1569    0.0000 H   0  0  0  0  0  0  0  0  0  0  0  0
    4.8001    0.0001    0.0000 O   0  0  0  0  0  0  0  0  0  0  0  0
   -0.0000    2.7713    0.0000 O   0  0  0  0  0  0  0  0  0  0  0  0
   -3.2000    2.7712    0.0000 H   0  0  0  0  0  0  0  0  0  0  0  0
  1  2  1  0  0  0  0
  2  3  1  0  0  0  0
  3  4  4  0  0  0  0
  4  5  1  0  0  0  0
  4  6  4  0  0  0  0
  6  7  1  0  0  0  0
  6  8  4  0  0  0  0
  8  9  1  0  0  0  0
  8 10  4  0  0  0  0
 10 11  1  0  0  0  0
 10 12  4  0  0  0  0
 12  3  4  0  0  0  0
 12 13  1  0  0  0  0
 13 14  1  0  0  0  0
 14 15  1  0  0  0  0
 15 16  1  0  0  0  0
 15 17  1  0  0  0  0
 15 18  1  0  0  0  0
 14 19  2  0  0  0  0
  2 20  2  0  0  0  0
  1 21  1  0  0  0  0
M  END
> <ChemID>
100044.0

> <CAS>
50-78-2

> <CAS_checksum>
ValidCAS

> <NAME>
ACETYLSALICYLIC ACID

> <name_error>
Warning: Structure is taken from ACD/Dictionary

> <preferred_name>
Aspirin

> <iupac>
2-(acetyloxy)benzoic acid

> <SMILES>
CC(=O)Oc1ccccc1C(O)=O

> <STAR_flag>
3 STAR

> <New STAR flag>
4 STAR: Smiles generated

> <Canonical_QSARr>
CC(=O)Oc1ccccc1C(O)=O

> <InChI_Code_QSARr>
InChI=1S/C9H8O4/c1-6(10)13-8-5-3-2-4-7(8)9(11)12/h2-5H,1H3,(H,11,12)

> <InChI Key_QSARr>
BSYNRYMUTXBXSQ-UHFFFAOYSA-N

> <Salt_Solvent>
?

> <Salt_Solvent_ID>


> <MP>
135.0

> <EstMP>
93.06

> <ErrorMP>
-41.94

> <gsid>
20108

> <dsstox_substance_id>
DTXSID5020108

> <qc_level>
DSSTox_Low

> <dsstox_compound_id>
DTXCID50108

> <Tr_1_Tst_0>
1

$$$$
100045.0
  -INDIGO-01081610012D

 15 15  0  0  0  0  0  0  0  0999 V2000
    1.6000    0.0000    0.0000 C   0  0  0  0  0  0  0  0  0  0  0  0
   -0.0000   -0.0000    0.0000 C   0  0  0  0  0  0  0  0  0  0  0  0
   -0.8000    1.3856    0.0000 C   0  0  0  0  0  0  0  0  0  0  0  0
   -0.0000    2.7713    0.0000 Cl  0  0  0  0  0  0  0  0  0  0  0  0
   -2.4000    1.3856    0.0000 C   0  0  0  0  0  0  0  0  0  0  0  0
   -3.2001    2.7713    0.0000 H   0  0  0  0  0  0  0  0  0  0  0  0
   -3.2001   -0.0000    0.0000 C   0  0  0  0  0  0  0  0  0  0  0  0
   -4.8000   -0.0000    0.0000 H   0  0  0  0  0  0  0  0  0  0  0  0
   -2.4000   -1.3856    0.0000 C   0  0  0  0  0  0  0  0  0  0  0  0
   -3.2001   -2.7713    0.0000 Cl  0  0  0  0  0  0  0  0  0  0  0  0
   -0.8000   -1.3856    0.0000 C   0  0  0  0  0  0  0  0  0  0  0  0
   -0.0000   -2.7713    0.0000 H   0  0  0  0  0  0  0  0  0  0  0  0
    2.4001   -1.3856    0.0000 O   0  0  0  0  0  0  0  0  0  0  0  0
    4.0000   -1.3856    0.0000 H   0  0  0  0  0  0  0  0  0  0  0  0
    2.4001    1.3856    0.0000 O   0  0  0  0  0  0  0  0  0  0  0  0
  1  2  1  0  0  0  0
  2  3  4  0  0  0  0
  3  4  1  0  0  0  0
  3  5  4  0  0  0  0
  5  6  1  0  0  0  0
  5  7  4  0  0  0  0
  7  8  1  0  0  0  0
  7  9  4  0  0  0  0
  9 10  1  0  0  0  0
  9 11  4  0  0  0  0
 11  2  4  0  0  0  0
 11 12  1  0  0  0  0
  1 13  1  0  0  0  0
 13 14  1  0  0  0  0
  1 15  2  0  0  0  0
M  END
> <ChemID>
100045.0

> <CAS>
50-79-3

> <CAS_checksum>
ValidCAS

> <NAME>
2,5-DICHLOROBENZOIC ACID

> <name_error>
Ok

> <preferred_name>
2,5-Dichlorobenzoic acid

> <iupac>
2,5-dichlorobenzoic acid

> <SMILES>
OC(=O)c1cc(Cl)ccc1Cl

> <STAR_flag>
3 STAR

> <New STAR flag>
4 STAR: Smiles generated

> <Canonical_QSARr>
OC(=O)c1cc(Cl)ccc1Cl

> <InChI_Code_QSARr>
InChI=1S/C7H4Cl2O2/c8-4-1-2-6(9)5(3-4)7(10)11/h1-3H,(H,10,11)

> <InChI Key_QSARr>
QVTQYSFCFOGITD-UHFFFAOYSA-N

> <Salt_Solvent>
?

> <Salt_Solvent_ID>


> <MP>
154.4

> <EstMP>
88.53

> <ErrorMP>
-65.87

> <gsid>
24978

> <dsstox_substance_id>
DTXSID5024978

> <qc_level>
DSSTox_High

> <dsstox_compound_id>
DTXCID504978

> <Tr_1_Tst_0>
0

$$$$
100046.0
  -INDIGO-01081610012D

 15 15  0  0  0  0  0  0  0  0999 V2000
   -0.8000    1.3856    0.0000 C   0  0  0  0  0  0  0  0  0  0  0  0
   -2.4000    1.3856    0.0000 C   0  0  0  0  0  0  0  0  0  0  0  0
   -3.2001    2.7713    0.0000 Cl  0  0  0  0  0  0  0  0  0  0  0  0
   -3.2001   -0.0000    0.0000 C   0  0  0  0  0  0  0  0  0  0  0  0
   -4.8000   -0.0000    0.0000 Cl  0  0  0  0  0  0  0  0  0  0  0  0
   -2.4000   -1.3856    0.0000 C   0  0  0  0  0  0  0  0  0  0  0  0
   -3.2001   -2.7713    0.0000 H   0  0  0  0  0  0  0  0  0  0  0  0
   -0.8000   -1.3856    0.0000 C   0  0  0  0  0  0  0  0  0  0  0  0
   -0.0000   -2.7713    0.0000 Cl  0  0  0  0  0  0  0  0  0  0  0  0
   -0.0000   -0.0000    0.0000 C   0  0  0  0  0  0  0  0  0  0  0  0
    1.6000    0.0000    0.0000 C   0  0  0  0  0  0  0  0  0  0  0  0
    2.4001   -1.3856    0.0000 O   0  0  0  0  0  0  0  0  0  0  0  0
    4.0000   -1.3856    0.0000 H   0  0  0  0  0  0  0  0  0  0  0  0
    2.4001    1.3856    0.0000 O   0  0  0  0  0  0  0  0  0  0  0  0
   -0.0000    2.7713    0.0000 H   0  0  0  0  0  0  0  0  0  0  0  0
  1  2  4  0  0  0  0
  2  3  1  0  0  0  0
  2  4  4  0  0  0  0
  4  5  1  0  0  0  0
  4  6  4  0  0  0  0
  6  7  1  0  0  0  0
  6  8  4  0  0  0  0
  8  9  1  0  0  0  0
  8 10  4  0  0  0  0
 10  1  4  0  0  0  0
 10 11  1  0  0  0  0
 11 12  1  0  0  0  0
 12 13  1  0  0  0  0
 11 14  2  0  0  0  0
  1 15  1  0  0  0  0
M  END
> <ChemID>
100046.0

> <CAS>
50-82-8

> <CAS_checksum>
ValidCAS

> <NAME>
2,4,5-TRICHLOROBENZOIC ACID

> <name_error>
Ok

> <preferred_name>
2,4,5-Trichlorobenzoic acid

> <iupac>
2,4,5-TRICHLOROBENZOIC ACID

> <SMILES>
OC(=O)c1cc(Cl)c(Cl)cc1Cl

> <STAR_flag>
3 STAR

> <New STAR flag>
4 STAR: Smiles generated

> <Canonical_QSARr>
OC(=O)c1cc(Cl)c(Cl)cc1Cl

> <InChI_Code_QSARr>
InChI=1S/C7H3Cl3O2/c8-4-2-6(10)5(9)1-3(4)7(11)12/h1-2H,(H,11,12)

> <InChI Key_QSARr>
PTFNNDHASFGWFI-UHFFFAOYSA-N

> <Salt_Solvent>
?

> <Salt_Solvent_ID>


> <MP>
166.5

> <EstMP>
108.94

> <ErrorMP>
-57.56

> <gsid>
75332

> <dsstox_substance_id>
DTXSID8075332

> <qc_level>
Public_High

> <dsstox_compound_id>
DTXCID9040768

> <Tr_1_Tst_0>
1

$$$$
100047.0
  -INDIGO-01081610012D

 15 15  0  0  0  0  0  0  0  0999 V2000
    1.6000    0.0000    0.0000 C   0  0  0  0  0  0  0  0  0  0  0  0
   -0.0000   -0.0000    0.0000 C   0  0  0  0  0  0  0  0  0  0  0  0
   -0.8000    1.3856    0.0000 C   0  0  0  0  0  0  0  0  0  0  0  0
   -0.0000    2.7713    0.0000 Cl  0  0  0  0  0  0  0  0  0  0  0  0
   -2.4000    1.3856    0.0000 C   0  0  0  0  0  0  0  0  0  0  0  0
   -3.2001    2.7713    0.0000 H   0  0  0  0  0  0  0  0  0  0  0  0
   -3.2001   -0.0000    0.0000 C   0  0  0  0  0  0  0  0  0  0  0  0
   -4.8000   -0.0000    0.0000 Cl  0  0  0  0  0  0  0  0  0  0  0  0
   -2.4000   -1.3856    0.0000 C   0  0  0  0  0  0  0  0  0  0  0  0
   -3.2001   -2.7713    0.0000 H   0  0  0  0  0  0  0  0  0  0  0  0
   -0.8000   -1.3856    0.0000 C   0  0  0  0  0  0  0  0  0  0  0  0
   -0.0000   -2.7713    0.0000 H   0  0  0  0  0  0  0  0  0  0  0  0
    2.4001   -1.3856    0.0000 O   0  0  0  0  0  0  0  0  0  0  0  0
    4.0000   -1.3856    0.0000 H   0  0  0  0  0  0  0  0  0  0  0  0
    2.4001    1.3856    0.0000 O   0  0  0  0  0  0  0  0  0  0  0  0
  1  2  1  0  0  0  0
  2  3  4  0  0  0  0
  3  4  1  0  0  0  0
  3  5  4  0  0  0  0
  5  6  1  0  0  0  0
  5  7  4  0  0  0  0
  7  8  1  0  0  0  0
  7  9  4  0  0  0  0
  9 10  1  0  0  0  0
  9 11  4  0  0  0  0
 11  2  4  0  0  0  0
 11 12  1  0  0  0  0
  1 13  1  0  0  0  0
 13 14  1  0  0  0  0
  1 15  2  0  0  0  0
M  END
> <ChemID>
100047.0

> <CAS>
50-84-0

> <CAS_checksum>
ValidCAS

> <NAME>
2,4-DICHLOROBENZOIC ACID

> <name_error>
Ok

> <preferred_name>
2,4-Dichlorobenzoic acid

> <iupac>
2,4-dichlorobenzoic acid

> <SMILES>
OC(=O)c1ccc(Cl)cc1Cl

> <STAR_flag>
3 STAR

> <New STAR flag>
4 STAR: Smiles generated

> <Canonical_QSARr>
OC(=O)c1ccc(Cl)cc1Cl

> <InChI_Code_QSARr>
InChI=1S/C7H4Cl2O2/c8-4-1-2-5(7(10)11)6(9)3-4/h1-3H,(H,10,11)

> <InChI Key_QSARr>
ATCRIUVQKHMXSH-UHFFFAOYSA-N

> <Salt_Solvent>
?

> <Salt_Solvent_ID>


> <MP>
164.2

> <EstMP>
88.53

> <ErrorMP>
-75.67

> <gsid>
24977

> <dsstox_substance_id>
DTXSID0024977

> <qc_level>
DSSTox_Low

> <dsstox_compound_id>
DTXCID104977

> <Tr_1_Tst_0>
1

$$$$
100048.0
  -INDIGO-01081610012D

 19 19  0  0  0  0  0  0  0  0999 V2000
    3.2000    2.7713    0.0000 O   0  0  0  0  0  0  0  0  0  0  0  0
    2.4000    1.3856    0.0000 C   0  0  0  0  0  0  0  0  0  0  0  0
    0.8000    1.3856    0.0000 C   0  0  0  0  0  0  0  0  0  0  0  0
    0.0001    2.7713    0.0000 H   0  0  0  0  0  0  0  0  0  0  0  0
    0.0001    0.0000    0.0000 C   0  0  0  0  0  0  0  0  0  0  0  0
   -1.6000    0.0000    0.0000 C   0  0  0  0  0  0  0  0  0  0  0  0
   -3.2000    0.0000    0.0000 H   0  0  0  0  0  0  0  0  0  0  0  0
   -2.4000   -1.3856    0.0000 H   0  0  0  0  0  0  0  0  0  0  0  0
   -2.4000    1.3856    0.0000 H   0  0  0  0  0  0  0  0  0  0  0  0
    0.8000   -1.3856    0.0000 C   0  0  0  0  0  0  0  0  0  0  0  0
    0.0001   -2.7713    0.0000 H   0  0  0  0  0  0  0  0  0  0  0  0
    2.4000   -1.3856    0.0000 C   0  0  0  0  0  0  0  0  0  0  0  0
    3.2000   -2.7713    0.0000 H   0  0  0  0  0  0  0  0  0  0  0  0
    3.2000    0.0000    0.0000 C   0  0  0  0  0  0  0  0  0  0  0  0
    4.8001    0.0000    0.0000 C   0  0  0  0  0  0  0  0  0  0  0  0
    5.6000    1.3856    0.0000 O   0  0  0  0  0  0  0  0  0  0  0  0
    5.6000   -1.3856    0.0000 O   0  0  0  0  0  0  0  0  0  0  0  0
    7.2000   -1.3856    0.0000 H   0  0  0  0  0  0  0  0  0  0  0  0
    2.4000    4.1569    0.0000 H   0  0  0  0  0  0  0  0  0  0  0  0
  1  2  1  0  0  0  0
  2  3  4  0  0  0  0
  3  4  1  0  0  0  0
  3  5  4  0  0  0  0
  5  6  1  0  0  0  0
  6  7  1  0  0  0  0
  6  8  1  0  0  0  0
  6  9  1  0  0  0  0
  5 10  4  0  0  0  0
 10 11  1  0  0  0  0
 10 12  4  0  0  0  0
 12 13  1  0  0  0  0
 12 14  4  0  0  0  0
 14  2  4  0  0  0  0
 14 15  1  0  0  0  0
 15 16  2  0  0  0  0
 15 17  1  0  0  0  0
 17 18  1  0  0  0  0
  1 19  1  0  0  0  0
M  END
> <ChemID>
100048.0

> <CAS>
50-85-1

> <CAS_checksum>
ValidCAS

> <NAME>
4-METHYLSALICYLIC ACID

> <name_error>
Ok

> <preferred_name>
m-Cresotic acid

> <iupac>
2-Hydroxy-4-methylbenzoic acid

> <SMILES>
Cc1cc(O)c(cc1)C(O)=O

> <STAR_flag>
3 STAR

> <New STAR flag>
4 STAR: Smiles generated

> <Canonical_QSARr>
Cc1cc(O)c(cc1)C(O)=O

> <InChI_Code_QSARr>
InChI=1S/C8H8O3/c1-5-2-3-6(8(10)11)7(9)4-5/h2-4,9H,1H3,(H,10,11)

> <InChI Key_QSARr>
NJESAXZANHETJV-UHFFFAOYSA-N

> <Salt_Solvent>
?

> <Salt_Solvent_ID>


> <MP>
177.0

> <EstMP>
106.06

> <ErrorMP>
-70.94

> <gsid>
198166

> <dsstox_substance_id>
DTXSID30198166

> <qc_level>
Public_Medium

> <dsstox_compound_id>
DTXCID60120657

> <Tr_1_Tst_0>
1

$$$$
100049.0
  -INDIGO-01081610012D

 31 32  0  0  0  0  0  0  0  0999 V2000
    1.5912   -0.1673    0.0000 N   0  0  0  0  0  0  0  0  0  0  0  0
    2.2421   -1.6289    0.0000 C   0  0  0  0  0  0  0  0  0  0  0  0
    1.3016   -2.9234    0.0000 H   0  0  0  0  0  0  0  0  0  0  0  0
    3.8333   -1.7962    0.0000 C   0  0  0  0  0  0  0  0  0  0  0  0
    4.4840   -3.2579    0.0000 C   0  0  0  0  0  0  0  0  0  0  0  0
    5.1348   -4.7195    0.0000 H   0  0  0  0  0  0  0  0  0  0  0  0
    6.0753   -3.4251    0.0000 H   0  0  0  0  0  0  0  0  0  0  0  0
    3.5436   -4.5523    0.0000 H   0  0  0  0  0  0  0  0  0  0  0  0
    4.7737   -0.5018    0.0000 C   0  0  0  0  0  0  0  0  0  0  0  0
    6.3649   -0.6689    0.0000 O   0  0  0  0  0  0  0  0  0  0  0  0
    4.1229    0.9600    0.0000 N   0  0  0  0  0  0  0  0  0  0  0  0
    5.0634    2.2544    0.0000 H   0  0  0  0  0  0  0  0  0  0  0  0
    2.5317    1.1271    0.0000 C   0  0  0  0  0  0  0  0  0  0  0  0
    1.8810    2.5889    0.0000 O   0  0  0  0  0  0  0  0  0  0  0  0
   -0.0000    0.0000    0.0000 C   0  0  0  0  0  0  0  0  0  0  0  0
   -1.5217    0.4944    0.0000 C   0  0  0  0  0  0  0  0  0  0  0  0
   -0.8709    1.9561    0.0000 H   0  0  0  0  0  0  0  0  0  0  0  0
   -2.9074    1.2944    0.0000 H   0  0  0  0  0  0  0  0  0  0  0  0
   -2.4621   -0.8000    0.0000 C   0  0  0  0  0  0  0  0  0  0  0  0
   -3.6512    0.2706    0.0000 O   0  0  0  0  0  0  0  0  0  0  0  0
   -5.1729   -0.2238    0.0000 H   0  0  0  0  0  0  0  0  0  0  0  0
   -3.4121   -1.0894    0.0000 H   0  0  0  0  0  0  0  0  0  0  0  0
   -1.5217   -2.0944    0.0000 C   0  0  0  0  0  0  0  0  0  0  0  0
   -3.0252   -2.6416    0.0000 C   0  0  0  0  0  0  0  0  0  0  0  0
   -4.5287   -3.1889    0.0000 O   0  0  0  0  0  0  0  0  0  0  0  0
   -4.8065   -4.7646    0.0000 H   0  0  0  0  0  0  0  0  0  0  0  0
   -2.4780   -4.1452    0.0000 H   0  0  0  0  0  0  0  0  0  0  0  0
   -3.6512   -1.8706    0.0000 H   0  0  0  0  0  0  0  0  0  0  0  0
   -0.8709   -3.5561    0.0000 H   0  0  0  0  0  0  0  0  0  0  0  0
   -0.0000   -1.6000    0.0000 O   0  0  0  0  0  0  0  0  0  0  0  0
    0.3327    1.5651    0.0000 H   0  0  0  0  0  0  0  0  0  0  0  0
  1  2  1  0  0  0  0
  2  3  1  0  0  0  0
  2  4  2  0  0  0  0
  4  5  1  0  0  0  0
  5  6  1  0  0  0  0
  5  7  1  0  0  0  0
  5  8  1  0  0  0  0
  4  9  1  0  0  0  0
  9 10  2  0  0  0  0
  9 11  1  0  0  0  0
 11 12  1  0  0  0  0
 11 13  1  0  0  0  0
 13  1  1  0  0  0  0
 13 14  2  0  0  0  0
  1 15  1  0  0  0  0
 15 16  1  0  0  0  0
 16 17  1  0  0  0  0
 16 18  1  0  0  0  0
 16 19  1  0  0  0  0
 19 20  1  0  0  0  0
 20 21  1  0  0  0  0
 19 22  1  0  0  0  0
 19 23  1  0  0  0  0
 23 24  1  0  0  0  0
 24 25  1  0  0  0  0
 25 26  1  0  0  0  0
 24 27  1  0  0  0  0
 24 28  1  0  0  0  0
 23 29  1  0  0  0  0
 23 30  1  0  0  0  0
 30 15  1  0  0  0  0
 15 31  1  0  0  0  0
M  END
> <ChemID>
100049.0

> <CAS>
50-89-5

> <CAS_checksum>
ValidCAS

> <NAME>
THYMIDINE

> <name_error>
Ok

> <preferred_name>
Thymidine

> <iupac>
2'-deoxy-3,4-dihydrothymidine

> <SMILES>
CC1=CN([C@H]2C[C@H](O)[C@@H](CO)O2)C(=O)NC1=O

> <STAR_flag>
3 STAR Enhanced Stereochemistry

> <New STAR flag>
4 STAR: Smiles generated

> <Canonical_QSARr>
CC1=CN(C2CC(O)C(CO)O2)C(=O)NC1=O

> <InChI_Code_QSARr>
InChI=1S/C10H14N2O5/c1-5-3-12(10(16)11-9(5)15)8-2-6(14)7(4-13)17-8/h3,6-8,13-14H,2,4H2,1H3,(H,11,15,16)

> <InChI Key_QSARr>
IQFYYKKMVGJFEH-UHFFFAOYSA-N

> <Salt_Solvent>
?

> <Salt_Solvent_ID>


> <MP>
186.5

> <EstMP>
226.62

> <ErrorMP>
40.12

> <gsid>
23661

> <dsstox_substance_id>
DTXSID5023661

> <qc_level>
DSSTox_Low

> <dsstox_compound_id>
DTXCID703661

> <Tr_1_Tst_0>
0

$$$$
100050.0
  -INDIGO-01081610012D

 28 29  0  0  0  0  0  0  0  0999 V2000
    1.5912   -0.1673    0.0000 N   0  0  0  0  0  0  0  0  0  0  0  0
    2.2421   -1.6289    0.0000 C   0  0  0  0  0  0  0  0  0  0  0  0
    1.3016   -2.9234    0.0000 H   0  0  0  0  0  0  0  0  0  0  0  0
    3.8333   -1.7962    0.0000 C   0  0  0  0  0  0  0  0  0  0  0  0
    4.4840   -3.2579    0.0000 F   0  0  0  0  0  0  0  0  0  0  0  0
    4.7737   -0.5018    0.0000 C   0  0  0  0  0  0  0  0  0  0  0  0
    6.3649   -0.6689    0.0000 O   0  0  0  0  0  0  0  0  0  0  0  0
    4.1229    0.9600    0.0000 N   0  0  0  0  0  0  0  0  0  0  0  0
    5.0634    2.2544    0.0000 H   0  0  0  0  0  0  0  0  0  0  0  0
    2.5317    1.1271    0.0000 C   0  0  0  0  0  0  0  0  0  0  0  0
    1.8810    2.5889    0.0000 O   0  0  0  0  0  0  0  0  0  0  0  0
   -0.0000    0.0000    0.0000 C   0  0  0  0  0  0  0  0  0  0  0  0
   -1.5217    0.4944    0.0000 C   0  0  0  0  0  0  0  0  0  0  0  0
   -0.8709    1.9561    0.0000 H   0  0  0  0  0  0  0  0  0  0  0  0
   -2.9074    1.2944    0.0000 H   0  0  0  0  0  0  0  0  0  0  0  0
   -2.4621   -0.8000    0.0000 C   0  0  0  0  0  0  0  0  0  0  0  0
   -3.6512    0.2706    0.0000 O   0  0  0  0  0  0  0  0  0  0  0  0
   -5.1729   -0.2238    0.0000 H   0  0  0  0  0  0  0  0  0  0  0  0
   -3.4121   -1.0894    0.0000 H   0  0  0  0  0  0  0  0  0  0  0  0
   -1.5217   -2.0944    0.0000 C   0  0  0  0  0  0  0  0  0  0  0  0
   -3.0252   -2.6416    0.0000 C   0  0  0  0  0  0  0  0  0  0  0  0
   -4.5287   -3.1889    0.0000 O   0  0  0  0  0  0  0  0  0  0  0  0
   -4.8065   -4.7646    0.0000 H   0  0  0  0  0  0  0  0  0  0  0  0
   -2.4780   -4.1452    0.0000 H   0  0  0  0  0  0  0  0  0  0  0  0
   -3.6512   -1.8706    0.0000 H   0  0  0  0  0  0  0  0  0  0  0  0
   -0.8709   -3.5561    0.0000 H   0  0  0  0  0  0  0  0  0  0  0  0
   -0.0000   -1.6000    0.0000 O   0  0  0  0  0  0  0  0  0  0  0  0
    0.3327    1.5651    0.0000 H   0  0  0  0  0  0  0  0  0  0  0  0
  1  2  1  0  0  0  0
  2  3  1  0  0  0  0
  2  4  2  0  0  0  0
  4  5  1  0  0  0  0
  4  6  1  0  0  0  0
  6  7  2  0  0  0  0
  6  8  1  0  0  0  0
  8  9  1  0  0  0  0
  8 10  1  0  0  0  0
 10  1  1  0  0  0  0
 10 11  2  0  0  0  0
  1 12  1  0  0  0  0
 12 13  1  0  0  0  0
 13 14  1  0  0  0  0
 13 15  1  0  0  0  0
 13 16  1  0  0  0  0
 16 17  1  0  0  0  0
 17 18  1  0  0  0  0
 16 19  1  0  0  0  0
 16 20  1  0  0  0  0
 20 21  1  0  0  0  0
 21 22  1  0  0  0  0
 22 23  1  0  0  0  0
 21 24  1  0  0  0  0
 21 25  1  0  0  0  0
 20 26  1  0  0  0  0
 20 27  1  0  0  0  0
 27 12  1  0  0  0  0
 12 28  1  0  0  0  0
M  END
> <ChemID>
100050.0

> <CAS>
50-91-9

> <CAS_checksum>
ValidCAS

> <NAME>
FLOXURIDINE

> <name_error>
Warning: Structure is taken from ACD/Dictionary

> <preferred_name>
Floxuridine

> <iupac>
2'-deoxy-5-fluorouridine

> <SMILES>
O[C@H]1C[C@@H](O[C@@H]1CO)N1C=C(F)C(=O)NC1=O

> <STAR_flag>
3 STAR Enhanced Stereochemistry

> <New STAR flag>
4 STAR: Smiles generated

> <Canonical_QSARr>
OC1CC(OC1CO)N1C=C(F)C(=O)NC1=O

> <InChI_Code_QSARr>
InChI=1S/C9H11FN2O5/c10-4-2-12(9(16)11-8(4)15)7-1-5(14)6(3-13)17-7/h2,5-7,13-14H,1,3H2,(H,11,15,16)

> <InChI Key_QSARr>
ODKNJVUHOIMIIZ-UHFFFAOYSA-N

> <Salt_Solvent>
?

> <Salt_Solvent_ID>


> <MP>
150.5

> <EstMP>
221.73

> <ErrorMP>
71.23

> <gsid>
23057

> <dsstox_substance_id>
DTXSID3023057

> <qc_level>
DSSTox_Low

> <dsstox_compound_id>
DTXCID603057

> <Tr_1_Tst_0>
1

$$$$
100052.0
  -INDIGO-01081610012D

 24 24  0  0  0  0  0  0  0  0999 V2000
   -3.1035    0.5473    0.0000 O   0  0  0  0  0  0  0  0  0  0  0  0
   -1.6000    0.0000    0.0000 C   0  0  0  0  0  0  0  0  0  0  0  0
   -2.3999   -1.3857    0.0000 C   0  0  0  0  0  0  0  0  0  0  0  0
   -3.6256   -2.4141    0.0000 O   0  0  0  0  0  0  0  0  0  0  0  0
   -5.1292   -1.8668    0.0000 H   0  0  0  0  0  0  0  0  0  0  0  0
   -3.6256   -0.3572    0.0000 H   0  0  0  0  0  0  0  0  0  0  0  0
   -1.6000   -2.7713    0.0000 C   0  0  0  0  0  0  0  0  0  0  0  0
   -1.3222   -4.3469    0.0000 O   0  0  0  0  0  0  0  0  0  0  0  0
   -2.5479   -5.3754    0.0000 H   0  0  0  0  0  0  0  0  0  0  0  0
   -3.1035   -3.3185    0.0000 H   0  0  0  0  0  0  0  0  0  0  0  0
   -0.0001   -2.7713    0.0000 O   0  0  0  0  0  0  0  0  0  0  0  0
    0.8000   -1.3857    0.0000 C   0  0  0  0  0  0  0  0  0  0  0  0
    2.0256   -2.4141    0.0000 C   0  0  0  0  0  0  0  0  0  0  0  0
    3.2513   -3.4426    0.0000 O   0  0  0  0  0  0  0  0  0  0  0  0
    4.7549   -2.8953    0.0000 H   0  0  0  0  0  0  0  0  0  0  0  0
    3.0542   -1.1884    0.0000 H   0  0  0  0  0  0  0  0  0  0  0  0
    0.9972   -3.6397    0.0000 H   0  0  0  0  0  0  0  0  0  0  0  0
    2.0256   -0.3572    0.0000 H   0  0  0  0  0  0  0  0  0  0  0  0
   -0.0001    0.0000    0.0000 C   0  0  0  0  0  0  0  0  0  0  0  0
    1.5035    0.5473    0.0000 O   0  0  0  0  0  0  0  0  0  0  0  0
    1.7813    2.1229    0.0000 H   0  0  0  0  0  0  0  0  0  0  0  0
   -0.2779    1.5757    0.0000 H   0  0  0  0  0  0  0  0  0  0  0  0
   -1.3222    1.5757    0.0000 H   0  0  0  0  0  0  0  0  0  0  0  0
   -3.3813    2.1229    0.0000 H   0  0  0  0  0  0  0  0  0  0  0  0
  1  2  1  0  0  0  0
  2  3  1  0  0  0  0
  3  4  1  0  0  0  0
  4  5  1  0  0  0  0
  3  6  1  0  0  0  0
  3  7  1  0  0  0  0
  7  8  1  0  0  0  0
  8  9  1  0  0  0  0
  7 10  1  0  0  0  0
  7 11  1  0  0  0  0
 11 12  1  0  0  0  0
 12 13  1  0  0  0  0
 13 14  1  0  0  0  0
 14 15  1  0  0  0  0
 13 16  1  0  0  0  0
 13 17  1  0  0  0  0
 12 18  1  0  0  0  0
 12 19  1  0  0  0  0
 19  2  1  0  0  0  0
 19 20  1  0  0  0  0
 20 21  1  0  0  0  0
 19 22  1  0  0  0  0
  2 23  1  0  0  0  0
  1 24  1  0  0  0  0
M  END
> <ChemID>
100052.0

> <CAS>
50-99-7, 59-23-4, 492-62-6

> <CAS_checksum>
ValidCAS

> <NAME>
GLUCOSE, GALACTOSE, alpha-D-Glucose

> <name_error>
Warning: D/L stereodescriptor missed. D-isomer shown

> <preferred_name>
D-Glucose

> <iupac>
D-glucopyranose

> <SMILES>
OC[C@H]1OC(O)[C@H](O)[C@@H](O)[C@@H]1O

> <STAR_flag>
2 STAR Enhanced Stereochemistry: Molfile, CAS

> <New STAR flag>
4 STAR: Name retrieved from DSSTOX, Smiles generated

> <Canonical_QSARr>
OCC1OC(O)C(O)C(O)C1O

> <InChI_Code_QSARr>
InChI=1S/C6H12O6/c7-1-2-3(8)4(9)5(10)6(11)12-2/h2-11H,1H2

> <InChI Key_QSARr>
WQZGKKKJIJFFOK-UHFFFAOYSA-N

> <Salt_Solvent>
?

> <Salt_Solvent_ID>


> <MP>
133.0

> <EstMP>
130.93666666666664

> <ErrorMP>
-2.063333333333335

> <gsid>
22910

> <dsstox_substance_id>
DTXSID7022910

> <qc_level>
DSSTox_High

> <dsstox_compound_id>
DTXCID302910

> <Tr_1_Tst_0>
1

$$$$
100054.0
  -INDIGO-01081610012D

 37 37  0  0  0  0  0  0  0  0999 V2000
   -5.5999    1.3856    0.0000 C   0  0  0  0  0  0  0  0  0  0  0  0
   -4.7999    0.0001    0.0000 O   0  0  0  0  0  0  0  0  0  0  0  0
   -3.2000    0.0001    0.0000 C   0  0  0  0  0  0  0  0  0  0  0  0
   -1.5999    0.0001    0.0000 C   0  0  0  0  0  0  0  0  0  0  0  0
    0.0000    0.0001    0.0000 N   0  0  0  0  0  0  0  0  0  0  0  0
    0.8001   -1.3856    0.0000 C   0  0  0  0  0  0  0  0  0  0  0  0
    1.6001   -2.7712    0.0000 C   0  0  0  0  0  0  0  0  0  0  0  0
    2.3999   -4.1569    0.0000 H   0  0  0  0  0  0  0  0  0  0  0  0
    3.2000   -2.7712    0.0000 H   0  0  0  0  0  0  0  0  0  0  0  0
    0.8001   -4.1569    0.0000 H   0  0  0  0  0  0  0  0  0  0  0  0
    2.1856   -0.5857    0.0000 H   0  0  0  0  0  0  0  0  0  0  0  0
   -0.5857   -2.1856    0.0000 H   0  0  0  0  0  0  0  0  0  0  0  0
    0.8001    1.3856    0.0000 C   0  0  0  0  0  0  0  0  0  0  0  0
    1.6001    2.7713    0.0000 C   0  0  0  0  0  0  0  0  0  0  0  0
    2.3999    4.1569    0.0000 H   0  0  0  0  0  0  0  0  0  0  0  0
    3.2000    2.7713    0.0000 H   0  0  0  0  0  0  0  0  0  0  0  0
    0.8001    4.1569    0.0000 H   0  0  0  0  0  0  0  0  0  0  0  0
    2.1856    0.5857    0.0000 H   0  0  0  0  0  0  0  0  0  0  0  0
   -0.5857    2.1856    0.0000 H   0  0  0  0  0  0  0  0  0  0  0  0
   -1.5999   -1.6000    0.0000 H   0  0  0  0  0  0  0  0  0  0  0  0
   -1.5999    1.6000    0.0000 H   0  0  0  0  0  0  0  0  0  0  0  0
   -3.2000   -1.6000    0.0000 H   0  0  0  0  0  0  0  0  0  0  0  0
   -3.2000    1.6000    0.0000 H   0  0  0  0  0  0  0  0  0  0  0  0
   -4.7999    2.7713    0.0000 O   0  0  0  0  0  0  0  0  0  0  0  0
   -7.2001    1.3856    0.0000 C   0  0  0  0  0  0  0  0  0  0  0  0
   -7.9999    2.7712    0.0000 C   0  0  0  0  0  0  0  0  0  0  0  0
   -7.2001    4.1569    0.0000 H   0  0  0  0  0  0  0  0  0  0  0  0
   -9.6000    2.7712    0.0000 C   0  0  0  0  0  0  0  0  0  0  0  0
  -10.4001    4.1569    0.0000 H   0  0  0  0  0  0  0  0  0  0  0  0
  -10.4001    1.3856    0.0000 C   0  0  0  0  0  0  0  0  0  0  0  0
  -11.9999    1.3856    0.0000 N   0  0  0  0  0  0  0  0  0  0  0  0
  -12.8000    2.7712    0.0000 H   0  0  0  0  0  0  0  0  0  0  0  0
  -12.8000   -0.0001    0.0000 H   0  0  0  0  0  0  0  0  0  0  0  0
   -9.6000   -0.0001    0.0000 C   0  0  0  0  0  0  0  0  0  0  0  0
  -10.4001   -1.3856    0.0000 H   0  0  0  0  0  0  0  0  0  0  0  0
   -7.9999   -0.0001    0.0000 C   0  0  0  0  0  0  0  0  0  0  0  0
   -7.2001   -1.3856    0.0000 H   0  0  0  0  0  0  0  0  0  0  0  0
  1  2  1  0  0  0  0
  2  3  1  0  0  0  0
  3  4  1  0  0  0  0
  4  5  1  0  0  0  0
  5  6  1  0  0  0  0
  6  7  1  0  0  0  0
  7  8  1  0  0  0  0
  7  9  1  0  0  0  0
  7 10  1  0  0  0  0
  6 11  1  0  0  0  0
  6 12  1  0  0  0  0
  5 13  1  0  0  0  0
 13 14  1  0  0  0  0
 14 15  1  0  0  0  0
 14 16  1  0  0  0  0
 14 17  1  0  0  0  0
 13 18  1  0  0  0  0
 13 19  1  0  0  0  0
  4 20  1  0  0  0  0
  4 21  1  0  0  0  0
  3 22  1  0  0  0  0
  3 23  1  0  0  0  0
  1 24  2  0  0  0  0
  1 25  1  0  0  0  0
 25 26  4  0  0  0  0
 26 27  1  0  0  0  0
 26 28  4  0  0  0  0
 28 29  1  0  0  0  0
 28 30  4  0  0  0  0
 30 31  1  0  0  0  0
 31 32  1  0  0  0  0
 31 33  1  0  0  0  0
 30 34  4  0  0  0  0
 34 35  1  0  0  0  0
 34 36  4  0  0  0  0
 36 25  4  0  0  0  0
 36 37  1  0  0  0  0
M  END
> <ChemID>
100054.0

> <CAS>
51-05-8

> <CAS_checksum>
ValidCAS

> <NAME>
PROCAINE HYDROCHLORIDE

> <name_error>
Warning: Derivative of ACD/Dictionary structure

> <preferred_name>
Procaine hydrochloride

> <iupac>
2-(diethylamino)ethyl 4-aminobenzoate hydrochloride (1:1)

> <SMILES>
Cl.CCN(CCOC(=O)c1ccc(N)cc1)CC

> <STAR_flag>
3 STAR

> <New STAR flag>
4 STAR: Smiles generated

> <Canonical_QSARr>
CCN(CCOC(=O)c1ccc(N)cc1)CC

> <InChI_Code_QSARr>
InChI=1S/C13H20N2O2/c1-3-15(4-2)9-10-17-13(16)11-5-7-12(14)8-6-11/h5-8H,3-4,9-10,14H2,1-2H3

> <InChI Key_QSARr>
MFDFERRIHVXMIY-UHFFFAOYSA-N

> <Salt_Solvent>
Cl

> <Salt_Solvent_ID>
18179

> <MP>
155.5

> <EstMP>
205.81

> <ErrorMP>
50.31

> <gsid>
44435

> <dsstox_substance_id>
DTXSID1044435

> <qc_level>
DSSTox_Low

> <dsstox_compound_id>
DTXCID9024435

> <Tr_1_Tst_0>
1

$$$$
100055.0
  -INDIGO-01081610012D

 40 41  0  0  0  0  0  0  0  0999 V2000
    9.6995    0.8000    0.0000 C   0  0  0  0  0  0  0  0  0  0  0  0
    8.3138    1.6001    0.0000 C   0  0  0  0  0  0  0  0  0  0  0  0
    8.3138    3.2000    0.0000 H   0  0  0  0  0  0  0  0  0  0  0  0
    6.9282    0.8000    0.0000 C   0  0  0  0  0  0  0  0  0  0  0  0
    5.5426    1.6001    0.0000 C   0  0  0  0  0  0  0  0  0  0  0  0
    4.1569    0.8000    0.0000 N   0  0  0  0  0  0  0  0  0  0  0  0
    2.7713    1.6001    0.0000 N   0  0  0  0  0  0  0  0  0  0  0  0
    1.3856    0.8000    0.0000 C   0  0  0  0  0  0  0  0  0  0  0  0
   -0.0000   -0.0000    0.0000 C   0  0  0  0  0  0  0  0  0  0  0  0
   -1.3856   -0.8000    0.0000 C   0  0  0  0  0  0  0  0  0  0  0  0
   -2.7713   -0.0000    0.0000 N   0  0  0  0  0  0  0  0  0  0  0  0
   -4.1569   -0.8000    0.0000 C   0  0  0  0  0  0  0  0  0  0  0  0
   -5.5426   -1.6000    0.0000 C   0  0  0  0  0  0  0  0  0  0  0  0
   -6.9282   -0.8000    0.0000 C   0  0  0  0  0  0  0  0  0  0  0  0
   -6.9282    0.8000    0.0000 H   0  0  0  0  0  0  0  0  0  0  0  0
   -8.3138   -1.6000    0.0000 C   0  0  0  0  0  0  0  0  0  0  0  0
   -9.6995   -0.8000    0.0000 H   0  0  0  0  0  0  0  0  0  0  0  0
   -8.3138   -3.2000    0.0000 C   0  0  0  0  0  0  0  0  0  0  0  0
   -9.6995   -4.0001    0.0000 H   0  0  0  0  0  0  0  0  0  0  0  0
   -6.9282   -4.0001    0.0000 C   0  0  0  0  0  0  0  0  0  0  0  0
   -6.9282   -5.6000    0.0000 H   0  0  0  0  0  0  0  0  0  0  0  0
   -5.5426   -3.2000    0.0000 C   0  0  0  0  0  0  0  0  0  0  0  0
   -4.1569   -4.0001    0.0000 H   0  0  0  0  0  0  0  0  0  0  0  0
   -3.3571   -2.1857    0.0000 H   0  0  0  0  0  0  0  0  0  0  0  0
   -4.9568    0.5856    0.0000 H   0  0  0  0  0  0  0  0  0  0  0  0
   -2.7713    1.6001    0.0000 H   0  0  0  0  0  0  0  0  0  0  0  0
   -1.3856   -2.4000    0.0000 O   0  0  0  0  0  0  0  0  0  0  0  0
    0.7999   -1.3856    0.0000 H   0  0  0  0  0  0  0  0  0  0  0  0
   -0.7999    1.3856    0.0000 H   0  0  0  0  0  0  0  0  0  0  0  0
    2.1855   -0.5856    0.0000 H   0  0  0  0  0  0  0  0  0  0  0  0
    0.5858    2.1857    0.0000 H   0  0  0  0  0  0  0  0  0  0  0  0
    2.7713    3.2000    0.0000 H   0  0  0  0  0  0  0  0  0  0  0  0
    4.1569   -0.8000    0.0000 H   0  0  0  0  0  0  0  0  0  0  0  0
    5.5426    3.2000    0.0000 O   0  0  0  0  0  0  0  0  0  0  0  0
    6.9282   -0.8000    0.0000 C   0  0  0  0  0  0  0  0  0  0  0  0
    5.5426   -1.6000    0.0000 H   0  0  0  0  0  0  0  0  0  0  0  0
    8.3138   -1.6000    0.0000 C   0  0  0  0  0  0  0  0  0  0  0  0
    8.3138   -3.2000    0.0000 H   0  0  0  0  0  0  0  0  0  0  0  0
    9.6995   -0.8000    0.0000 N   0  0  0  1  0  0  0  0  0  0  0  0
   11.0851    1.6001    0.0000 H   0  0  0  0  0  0  0  0  0  0  0  0
  1  2  4  0  0  0  0
  2  3  1  0  0  0  0
  2  4  4  0  0  0  0
  4  5  1  0  0  0  0
  5  6  1  0  0  0  0
  6  7  1  0  0  0  0
  7  8  1  0  0  0  0
  8  9  1  0  0  0  0
  9 10  1  0  0  0  0
 10 11  1  0  0  0  0
 11 12  1  0  0  0  0
 12 13  1  0  0  0  0
 13 14  4  0  0  0  0
 14 15  1  0  0  0  0
 14 16  4  0  0  0  0
 16 17  1  0  0  0  0
 16 18  4  0  0  0  0
 18 19  1  0  0  0  0
 18 20  4  0  0  0  0
 20 21  1  0  0  0  0
 20 22  4  0  0  0  0
 22 13  4  0  0  0  0
 22 23  1  0  0  0  0
 12 24  1  0  0  0  0
 12 25  1  0  0  0  0
 11 26  1  0  0  0  0
 10 27  2  0  0  0  0
  9 28  1  0  0  0  0
  9 29  1  0  0  0  0
  8 30  1  0  0  0  0
  8 31  1  0  0  0  0
  7 32  1  0  0  0  0
  6 33  1  0  0  0  0
  5 34  2  0  0  0  0
  4 35  4  0  0  0  0
 35 36  1  0  0  0  0
 35 37  4  0  0  0  0
 37 38  1  0  0  0  0
 37 39  4  0  0  0  0
 39  1  4  0  0  0  0
  1 40  1  0  0  0  0
M  END
> <ChemID>
100055.0

> <CAS>
51-12-7

> <CAS_checksum>
ValidCAS

> <NAME>
NIALAMIDE

> <name_error>
Warning: Structure is taken from ACD/Dictionary

> <preferred_name>
Nialamide

> <iupac>
N-benzyl-3-[2-(pyridin-4-ylcarbonyl)hydrazinyl]propanamide

> <SMILES>
O=C(CCNNC(=O)c1cc[n]cc1)NCc1ccccc1

> <STAR_flag>
3 STAR

> <New STAR flag>
4 STAR: Smiles generated

> <Canonical_QSARr>
O=C(CCNNC(=O)c1cc[n]cc1)NCc1ccccc1

> <InChI_Code_QSARr>
InChI=1S/C16H18N4O2/c21-15(18-12-13-4-2-1-3-5-13)8-11-19-20-16(22)14-6-9-17-10-7-14/h1-7,9-10,19H,8,11-12H2,(H,18,21)(H,20,22)

> <InChI Key_QSARr>
NOIIUHRQUVNIDD-UHFFFAOYSA-N

> <Salt_Solvent>
?

> <Salt_Solvent_ID>


> <MP>
151.6

> <EstMP>
235.15

> <ErrorMP>
83.55

> <gsid>
23362

> <dsstox_substance_id>
DTXSID1023362

> <qc_level>
DSSTox_Low

> <dsstox_compound_id>
DTXCID503362

> <Tr_1_Tst_0>
0

$$$$
100056.0
  -INDIGO-01081610012D

 15 16  0  0  0  0  0  0  0  0999 V2000
   -0.8000    1.3856    0.0000 C   0  0  0  0  0  0  0  0  0  0  0  0
   -2.4000    1.3856    0.0000 C   0  0  0  0  0  0  0  0  0  0  0  0
   -3.2000    2.7713    0.0000 H   0  0  0  0  0  0  0  0  0  0  0  0
   -3.2000    0.0000    0.0000 C   0  0  0  0  0  0  0  0  0  0  0  0
   -4.8000    0.0000    0.0000 H   0  0  0  0  0  0  0  0  0  0  0  0
   -2.4000   -1.3856    0.0000 C   0  0  0  0  0  0  0  0  0  0  0  0
   -3.2000   -2.7713    0.0000 H   0  0  0  0  0  0  0  0  0  0  0  0
   -0.8000   -1.3856    0.0000 C   0  0  0  0  0  0  0  0  0  0  0  0
    0.0000   -2.7713    0.0000 H   0  0  0  0  0  0  0  0  0  0  0  0
    0.0000    0.0000    0.0000 C   0  0  0  0  0  0  0  0  0  0  0  0
    1.5650    0.3327    0.0000 N   0  0  0  1  0  0  0  0  0  0  0  0
    2.7540   -0.7380    0.0000 H   0  0  0  0  0  0  0  0  0  0  0  0
    1.7322    1.9239    0.0000 C   0  0  0  0  0  0  0  0  0  0  0  0
    3.1179    2.7239    0.0000 H   0  0  0  0  0  0  0  0  0  0  0  0
    0.2706    2.5746    0.0000 N   0  0  0  1  0  0  0  0  0  0  0  0
  1  2  4  0  0  0  0
  2  3  1  0  0  0  0
  2  4  4  0  0  0  0
  4  5  1  0  0  0  0
  4  6  4  0  0  0  0
  6  7  1  0  0  0  0
  6  8  4  0  0  0  0
  8  9  1  0  0  0  0
  8 10  4  0  0  0  0
 10  1  4  0  0  0  0
 10 11  4  0  0  0  0
 11 12  1  0  0  0  0
 11 13  4  0  0  0  0
 13 14  1  0  0  0  0
 13 15  4  0  0  0  0
 15  1  4  0  0  0  0
M  END
> <ChemID>
100056.0

> <CAS>
51-17-2

> <CAS_checksum>
ValidCAS

> <NAME>
BENZIMIDAZOLE

> <name_error>
Ok

> <preferred_name>
Benzimidazole

> <iupac>
1H-benzimidazole

> <SMILES>
c1[nH]c2ccccc2[n]1

> <STAR_flag>
3 STAR

> <New STAR flag>
4 STAR: Smiles generated

> <Canonical_QSARr>
c1[nH]c2ccccc2[n]1

> <InChI_Code_QSARr>
InChI=1S/C7H6N2/c1-2-4-7-6(3-1)8-5-9-7/h1-5H,(H,8,9)

> <InChI Key_QSARr>
HYZJCKYKOHLVJF-UHFFFAOYSA-N

> <Salt_Solvent>
?

> <Salt_Solvent_ID>


> <MP>
170.5

> <EstMP>
90.85

> <ErrorMP>
-79.65

> <gsid>
24573

> <dsstox_substance_id>
DTXSID8024573

> <qc_level>
DSSTox_Low

> <dsstox_compound_id>
DTXCID704573

> <Tr_1_Tst_0>
1

$$$$
100057.0
  -INDIGO-01081610012D

 12 12  0  0  0  0  0  0  0  0999 V2000
    0.0000   -0.0000    0.0000 C   0  0  0  0  0  0  0  0  0  0  0  0
   -0.8000    1.3856    0.0000 O   0  0  0  0  0  0  0  0  0  0  0  0
   -0.8000   -1.3857    0.0000 N   0  0  0  0  0  0  0  0  0  0  0  0
   -2.4000   -1.3857    0.0000 H   0  0  0  0  0  0  0  0  0  0  0  0
    0.0000   -2.7713    0.0000 C   0  0  0  0  0  0  0  0  0  0  0  0
   -0.8000   -4.1569    0.0000 O   0  0  0  0  0  0  0  0  0  0  0  0
    1.6000   -2.7713    0.0000 N   0  0  0  0  0  0  0  0  0  0  0  0
    2.4000   -4.1569    0.0000 H   0  0  0  0  0  0  0  0  0  0  0  0
    2.4000   -1.3857    0.0000 C   0  0  0  0  0  0  0  0  0  0  0  0
    4.0000   -1.3857    0.0000 H   0  0  0  0  0  0  0  0  0  0  0  0
    1.6000   -0.0000    0.0000 C   0  0  0  0  0  0  0  0  0  0  0  0
    2.4000    1.3856    0.0000 Br  0  0  0  0  0  0  0  0  0  0  0  0
  1  2  2  0  0  0  0
  1  3  1  0  0  0  0
  3  4  1  0  0  0  0
  3  5  1  0  0  0  0
  5  6  2  0  0  0  0
  5  7  1  0  0  0  0
  7  8  1  0  0  0  0
  7  9  1  0  0  0  0
  9 10  1  0  0  0  0
  9 11  2  0  0  0  0
 11  1  1  0  0  0  0
 11 12  1  0  0  0  0
M  END
> <ChemID>
100057.0

> <CAS>
51-20-7

> <CAS_checksum>
ValidCAS

> <NAME>
5-BROMOURACIL

> <name_error>
Ok

> <preferred_name>
5-Bromouracil

> <iupac>
5-bromo-1H-pyrimidine-2,4-dione

> <SMILES>
O=C1NC=C(Br)C(=O)N1

> <STAR_flag>
3 STAR

> <New STAR flag>
4 STAR: Smiles generated

> <Canonical_QSARr>
O=C1NC=C(Br)C(=O)N1

> <InChI_Code_QSARr>
InChI=1S/C4H3BrN2O2/c5-2-1-6-4(9)7-3(2)8/h1H,(H2,6,7,8,9)

> <InChI Key_QSARr>
LQLQRFGHAALLLE-UHFFFAOYSA-N

> <Salt_Solvent>
?

> <Salt_Solvent_ID>


> <MP>
310.0

> <EstMP>
167.67

> <ErrorMP>
-142.33

> <gsid>
58758

> <dsstox_substance_id>
DTXSID2058758

> <qc_level>
Public_High

> <dsstox_compound_id>
DTXCID2040945

> <Tr_1_Tst_0>
1

$$$$
